
OS:Version,
  {e2af09c8-a410-4c3d-a914-789c232f3f06}, !- Handle
  2.4.0;                                  !- Version Identifier

OS:ClimateZones,
  {8a3ac41c-57d4-48e4-a48e-1f232e262211}, !- Handle
  ,                                       !- Active Institution
  ,                                       !- Active Year
  ASHRAE,                                 !- Climate Zone Institution Name 1
  ANSI/ASHRAE Standard 169,               !- Climate Zone Document Name 1
  2006,                                   !- Climate Zone Document Year 1
  ,                                       !- Climate Zone Value 1
  CEC,                                    !- Climate Zone Institution Name 2
  California Climate Zone Descriptions,   !- Climate Zone Document Name 2
  1995,                                   !- Climate Zone Document Year 2
  ;                                       !- Climate Zone Value 2

OS:LifeCycleCost:Parameters,
  {1d4d0f18-e6dd-45c8-896c-f4f2a89e6ae5}, !- Handle
  FEMP,                                   !- Analysis Type
  ,                                       !- Discounting Convention
  ,                                       !- Inflation Approach
  ,                                       !- Real Discount Rate
  ,                                       !- Nominal Discount Rate
  ,                                       !- Inflation
  ,                                       !- Base Date Month
  ,                                       !- Base Date Year
  ,                                       !- Service Date Month
  ,                                       !- Service Date Year
  ,                                       !- Length of Study Period in Years
  ,                                       !- Tax Rate
  ,                                       !- Depreciation Method
  Yes;                                    !- Use NIST Fuel Escalation Rates

OS:YearDescription,
  {c1349a5a-d7e1-4ed9-8e5b-24480649c25c}, !- Handle
  ,                                       !- Calendar Year
  Sunday;                                 !- Day of Week for Start Day

OS:RadianceParameters,
  {8297fd56-36de-4b79-a182-b7636f4ae3e3}, !- Handle
  1,                                      !- Accumulated Rays per Record
  0,                                      !- Direct Threshold
  1,                                      !- Direct Certainty
  1,                                      !- Direct Jitter
  1,                                      !- Direct Pretest
  6,                                      !- Ambient Bounces VMX
  2,                                      !- Ambient Bounces DMX
  4050,                                   !- Ambient Divisions VMX
  512,                                    !- Ambient Divisions DMX
  256,                                    !- Ambient Supersamples
  0.001,                                  !- Limit Weight VMX
  0.001,                                  !- Limit Weight DMX
  500,                                    !- Klems Sampling Density
  146;                                    !- Sky Discretization Resolution

OS:SimulationControl,
  {7c57f4fc-548f-44e7-a438-1feca6a75629}; !- Handle

OS:Sizing:Parameters,
  {ee365675-827e-489e-9a24-0f596988dec4}, !- Handle
  1.25,                                   !- Heating Sizing Factor
  1.15;                                   !- Cooling Sizing Factor

OS:ProgramControl,
  {8a7b938e-cdcb-40af-82b1-79c267c36bae}; !- Handle

OS:Timestep,
  {31824a36-2f0f-4919-a534-cdb00e20d2e0}, !- Handle
  6;                                      !- Number of Timesteps per Hour

OS:OutputControl:ReportingTolerances,
  {275082a5-6cfd-4756-972e-8810ab253e29}; !- Handle

OS:ConvergenceLimits,
  {fcca1605-8471-4f2f-a485-a59582311771}; !- Handle

OS:ShadowCalculation,
  {d875de65-75c7-4d9d-883e-07bd79421b67}, !- Handle
  7,                                      !- Calculation Frequency
  15000;                                  !- Maximum Figures in Shadow Overlap Calculations

OS:SurfaceConvectionAlgorithm:Inside,
  {5add9a33-b760-4e82-a0f9-3ae0e369b9c4}, !- Handle
  TARP;                                   !- Algorithm

OS:SurfaceConvectionAlgorithm:Outside,
  {0257be16-14fc-418e-bc73-178201ccc4ec}, !- Handle
  DOE-2;                                  !- Algorithm

OS:HeatBalanceAlgorithm,
  {5a22c4c4-a6a6-4769-b0a8-f79498f98a6d}, !- Handle
  ConductionTransferFunction,             !- Algorithm
  200;                                    !- Surface Temperature Upper Limit {C}

OS:ZoneAirHeatBalanceAlgorithm,
  {24c912f8-6f7f-4792-8ea0-a8d47b3c41a1}, !- Handle
  AnalyticalSolution;                     !- Algorithm

OS:ZoneAirContaminantBalance,
  {07e7d420-4b9b-4760-8a70-01b36aa6074f}; !- Handle

OS:ZoneCapacitanceMultiplier:ResearchSpecial,
  {91056672-db13-4057-9cb7-7ac44d24bfc5}, !- Handle
  ,                                       !- Temperature Capacity Multiplier
  ,                                       !- Humidity Capacity Multiplier
  ;                                       !- Carbon Dioxide Capacity Multiplier

OS:RunPeriod,
  {17c33f47-c9b9-463a-84bc-12596f349148}, !- Handle
  Run Period 1,                           !- Name
  1,                                      !- Begin Month
  1,                                      !- Begin Day of Month
  12,                                     !- End Month
  31,                                     !- End Day of Month
  ,                                       !- Use Weather File Holidays and Special Days
  ,                                       !- Use Weather File Daylight Saving Period
  ,                                       !- Apply Weekend Holiday Rule
  ,                                       !- Use Weather File Rain Indicators
  ,                                       !- Use Weather File Snow Indicators
  ;                                       !- Number of Times Runperiod to be Repeated

OS:Building,
  {e0ce3521-4e53-4eca-8017-2f1c8dec2b50}, !- Handle
  Building 1,                             !- Name
  ,                                       !- Building Sector Type
  ,                                       !- North Axis {deg}
  ,                                       !- Nominal Floor to Floor Height {m}
  {54114ff3-9e5e-467c-b1f8-a0dfb9300214}, !- Space Type Name
  {8d0d543c-f7c0-4bcc-ab76-f0c9fa09f21c}, !- Default Construction Set Name
  ,                                       !- Default Schedule Set Name
  ,                                       !- Standards Number of Stories
  ,                                       !- Standards Number of Above Ground Stories
  ,                                       !- Standards Building Type
  ,                                       !- Standards Number of Living Units
  ,                                       !- Relocatable
  ;                                       !- Nominal Floor to Ceiling Height {m}

OS:Facility,
  {b6e6be84-f909-42a5-9deb-ef70c0296721}; !- Handle

OS:Site,
  {f38b0e3c-04e1-4822-940e-9b46c436222c}, !- Handle
  Piacenza,                               !- Name
  44.92,                                  !- Latitude {deg}
  9.73,                                   !- Longitude {deg}
  1,                                      !- Time Zone {hr}
  134,                                    !- Elevation {m}
  ;                                       !- Terrain

OS:SpaceType,
  {c02d7d38-2418-4a89-a423-305cffcc2327}, !- Handle
  189.1-2009 - SmHotel - Corridor - CZ4-8, !- Name
  ,                                       !- Default Construction Set Name
  {3cc8b12d-259f-488f-9396-f01e9d536211}, !- Default Schedule Set Name
  {2e6561f4-9497-4698-a2f2-9cf93ec057e1}, !- Group Rendering Name
  {16839d59-3dcb-49c5-b508-3d2c552d0516}, !- Design Specification Outdoor Air Object Name
  SmallHotel,                             !- Standards Building Type
  Corridor;                               !- Standards Space Type

OS:Rendering:Color,
  {2e6561f4-9497-4698-a2f2-9cf93ec057e1}, !- Handle
  Rendering Color 1,                      !- Name
  169,                                    !- Rendering Red Value
  31,                                     !- Rendering Green Value
  31;                                     !- Rendering Blue Value

OS:DefaultScheduleSet,
  {3cc8b12d-259f-488f-9396-f01e9d536211}, !- Handle
  189.1-2009 - SmHotel - Corridor - CZ4-8 Schedule Set, !- Name
  ,                                       !- Hours of Operation Schedule Name
  ,                                       !- Number of People Schedule Name
  ,                                       !- People Activity Level Schedule Name
  {ab51bc8c-938e-4c97-b0a0-011b7e36c307}, !- Lighting Schedule Name
  ,                                       !- Electric Equipment Schedule Name
  ,                                       !- Gas Equipment Schedule Name
  ,                                       !- Hot Water Equipment Schedule Name
  {1b9e3d01-dba3-44f4-bcf9-fe3f42c4f645}, !- Infiltration Schedule Name
  ,                                       !- Steam Equipment Schedule Name
  ;                                       !- Other Equipment Schedule Name

OS:Lights:Definition,
  {cffd4d71-30d9-41b9-941b-b1533aa442ef}, !- Handle
  189.1-2009 - SmHotel - Corridor - CZ4-8 Lights Definition, !- Name
  Watts/Area,                             !- Design Level Calculation Method
  ,                                       !- Lighting Level {W}
  4.84375968751938,                       !- Watts per Space Floor Area {W/m2}
  ;                                       !- Watts per Person {W/person}

OS:Lights,
  {8a8c43f6-f943-4510-a255-75fe85bed6cf}, !- Handle
  189.1-2009 - SmHotel - Corridor - CZ4-8 Lights, !- Name
  {cffd4d71-30d9-41b9-941b-b1533aa442ef}, !- Lights Definition Name
  {c02d7d38-2418-4a89-a423-305cffcc2327}; !- Space or SpaceType Name

OS:Schedule:Ruleset,
  {ab51bc8c-938e-4c97-b0a0-011b7e36c307}, ! Handle
  SmallHotel Bldg Light,                  ! Name
  {f25c0716-74c2-48e0-a44d-8ea3e4a22d70}, ! Schedule Type Limits Name
  {68573828-722d-4093-a80b-0eec687b86b2}, ! Default Day Schedule Name
  {2134cfb9-10dd-4c6c-92a9-1fff560bbe87}, ! Summer Design Day Schedule Name
  {f70a5973-9daa-4700-bd4e-2efaa2597bc9}; ! Winter Design Day Schedule Name

OS:ScheduleTypeLimits,
  {f25c0716-74c2-48e0-a44d-8ea3e4a22d70}, ! Handle
  Fraction,                               ! Name
  0,                                      ! Lower Limit Value
  1,                                      ! Upper Limit Value
  CONTINUOUS;                             ! Numeric Type

OS:Schedule:Day,
  {68573828-722d-4093-a80b-0eec687b86b2}, ! Handle
  SmallHotel Bldg Light Default Schedule, ! Name
  {f25c0716-74c2-48e0-a44d-8ea3e4a22d70}, ! Schedule Type Limits Name
  ,                                       ! Interpolate to Timestep
  1,                                      !- Hour 1
  0,                                      !- Minute 1
  0.2,                                    !- Value Until Time 1
  2,                                      !- Hour 2
  0,                                      !- Minute 2
  0.15,                                   !- Value Until Time 2
  5,                                      !- Hour 3
  0,                                      !- Minute 3
  0.1,                                    !- Value Until Time 3
  6,                                      !- Hour 4
  0,                                      !- Minute 4
  0.2,                                    !- Value Until Time 4
  7,                                      !- Hour 5
  0,                                      !- Minute 5
  0.4,                                    !- Value Until Time 5
  8,                                      !- Hour 6
  0,                                      !- Minute 6
  0.5,                                    !- Value Until Time 6
  10,                                     !- Hour 7
  0,                                      !- Minute 7
  0.4,                                    !- Value Until Time 7
  18,                                     !- Hour 8
  0,                                      !- Minute 8
  0.25,                                   !- Value Until Time 8
  19,                                     !- Hour 9
  0,                                      !- Minute 9
  0.6,                                    !- Value Until Time 9
  20,                                     !- Hour 10
  0,                                      !- Minute 10
  0.8,                                    !- Value Until Time 10
  21,                                     !- Hour 11
  0,                                      !- Minute 11
  0.9,                                    !- Value Until Time 11
  22,                                     !- Hour 12
  0,                                      !- Minute 12
  0.8,                                    !- Value Until Time 12
  23,                                     !- Hour 13
  0,                                      !- Minute 13
  0.6,                                    !- Value Until Time 13
  24,                                     !- Hour 14
  0,                                      !- Minute 14
  0.3;                                    !- Value Until Time 14

OS:Schedule:Day,
  {2134cfb9-10dd-4c6c-92a9-1fff560bbe87}, ! Handle
  SmallHotel Bldg Light Summer Design Day, ! Name
  {f25c0716-74c2-48e0-a44d-8ea3e4a22d70}, ! Schedule Type Limits Name
  ,                                       ! Interpolate to Timestep
  24,                                     ! Hour 1
  0,                                      ! Minute 1
  1;                                      ! Value Until Time 1

OS:Schedule:Day,
  {f70a5973-9daa-4700-bd4e-2efaa2597bc9}, ! Handle
  SmallHotel Bldg Light Winter Design Day, ! Name
  {f25c0716-74c2-48e0-a44d-8ea3e4a22d70}, ! Schedule Type Limits Name
  ,                                       ! Interpolate to Timestep
  24,                                     ! Hour 1
  0,                                      ! Minute 1
  0;                                      ! Value Until Time 1

OS:Schedule:Rule,
  {a7cf019d-9dbf-41dd-9ce0-98372ac0d05b}, ! Handle
  SmallHotel Bldg Light Rule 1,           ! Name
  {ab51bc8c-938e-4c97-b0a0-011b7e36c307}, ! Schedule Ruleset Name
  0,                                      ! Rule Order
  {95a38ad0-064a-4fe0-ae2c-72486ef6826c}, ! Day Schedule Name
  Yes,                                    ! Apply Sunday
  No,                                     ! Apply Monday
  No,                                     ! Apply Tuesday
  No,                                     ! Apply Wednesday
  No,                                     ! Apply Thursday
  No,                                     ! Apply Friday
  No,                                     ! Apply Saturday
  ,                                       ! Apply Holiday
  DateRange,                              ! Date Specification Type
  1,                                      ! Start Month
  1,                                      ! Start Day
  12,                                     ! End Month
  31;                                     ! End Day

OS:Schedule:Day,
  {95a38ad0-064a-4fe0-ae2c-72486ef6826c}, ! Handle
  SmallHotel Bldg Light Rule 1 Day Schedule, ! Name
  {f25c0716-74c2-48e0-a44d-8ea3e4a22d70}, ! Schedule Type Limits Name
  ,                                       ! Interpolate to Timestep
  2,                                      ! Hour 1
  0,                                      ! Minute 1
  0.29999999999999999,                    ! Value Until Time 1
  6,                                      ! Hour 2
  0,                                      ! Minute 2
  0.20000000000000001,                    ! Value Until Time 2
  7,                                      ! Hour 3
  0,                                      ! Minute 3
  0.29999999999999999,                    ! Value Until Time 3
  9,                                      ! Hour 4
  0,                                      ! Minute 4
  0.40000000000000002,                    ! Value Until Time 4
  13,                                     ! Hour 5
  0,                                      ! Minute 5
  0.29999999999999999,                    ! Value Until Time 5
  18,                                     ! Hour 6
  0,                                      ! Minute 6
  0.20000000000000001,                    ! Value Until Time 6
  19,                                     ! Hour 7
  0,                                      ! Minute 7
  0.5,                                    ! Value Until Time 7
  20,                                     ! Hour 8
  0,                                      ! Minute 8
  0.69999999999999996,                    ! Value Until Time 8
  21,                                     ! Hour 9
  0,                                      ! Minute 9
  0.80000000000000004,                    ! Value Until Time 9
  22,                                     ! Hour 10
  0,                                      ! Minute 10
  0.59999999999999998,                    ! Value Until Time 10
  23,                                     ! Hour 11
  0,                                      ! Minute 11
  0.5,                                    ! Value Until Time 11
  24,                                     ! Hour 12
  0,                                      ! Minute 12
  0.29999999999999999;                    ! Value Until Time 12

OS:Schedule:Rule,
  {697a3585-51af-4c50-a647-b045d45afe94}, ! Handle
  SmallHotel Bldg Light Rule 2,           ! Name
  {ab51bc8c-938e-4c97-b0a0-011b7e36c307}, ! Schedule Ruleset Name
  1,                                      ! Rule Order
  {8ab59948-34b1-4116-9fb8-4890c4e47839}, ! Day Schedule Name
  No,                                     ! Apply Sunday
  No,                                     ! Apply Monday
  No,                                     ! Apply Tuesday
  No,                                     ! Apply Wednesday
  No,                                     ! Apply Thursday
  No,                                     ! Apply Friday
  Yes,                                    ! Apply Saturday
  ,                                       ! Apply Holiday
  DateRange,                              ! Date Specification Type
  1,                                      ! Start Month
  1,                                      ! Start Day
  12,                                     ! End Month
  31;                                     ! End Day

OS:Schedule:Day,
  {8ab59948-34b1-4116-9fb8-4890c4e47839}, ! Handle
  SmallHotel Bldg Light Rule 2 Day Schedule, ! Name
  {f25c0716-74c2-48e0-a44d-8ea3e4a22d70}, ! Schedule Type Limits Name
  ,                                       ! Interpolate to Timestep
  2,                                      ! Hour 1
  0,                                      ! Minute 1
  0.20000000000000001,                    ! Value Until Time 1
  6,                                      ! Hour 2
  0,                                      ! Minute 2
  0.10000000000000001,                    ! Value Until Time 2
  8,                                      ! Hour 3
  0,                                      ! Minute 3
  0.29999999999999999,                    ! Value Until Time 3
  10,                                     ! Hour 4
  0,                                      ! Minute 4
  0.40000000000000002,                    ! Value Until Time 4
  11,                                     ! Hour 5
  0,                                      ! Minute 5
  0.29999999999999999,                    ! Value Until Time 5
  18,                                     ! Hour 6
  0,                                      ! Minute 6
  0.25,                                   ! Value Until Time 6
  19,                                     ! Hour 7
  0,                                      ! Minute 7
  0.59999999999999998,                    ! Value Until Time 7
  22,                                     ! Hour 8
  0,                                      ! Minute 8
  0.69999999999999996,                    ! Value Until Time 8
  23,                                     ! Hour 9
  0,                                      ! Minute 9
  0.59999999999999998,                    ! Value Until Time 9
  24,                                     ! Hour 10
  0,                                      ! Minute 10
  0.29999999999999999;                    ! Value Until Time 10

OS:DesignSpecification:OutdoorAir,
  {16839d59-3dcb-49c5-b508-3d2c552d0516}, !- Handle
  189.1-2009 - SmHotel - Corridor - CZ4-8 Ventilation, !- Name
  Sum,                                    !- Outdoor Air Method
  ,                                       !- Outdoor Air Flow per Person {m3/s-person}
  0.000254,                               !- Outdoor Air Flow per Floor Area {m3/s-m2}
  ,                                       !- Outdoor Air Flow Rate {m3/s}
  ,                                       !- Outdoor Air Flow Air Changes per Hour {1/hr}
  ;                                       !- Outdoor Air Flow Rate Fraction Schedule Name

OS:SpaceInfiltration:DesignFlowRate,
  {34374776-cbcc-4e05-b03a-f3bad0f0fc96}, !- Handle
  189.1-2009 - SmHotel - Corridor - CZ4-8 Infiltration, !- Name
  {c02d7d38-2418-4a89-a423-305cffcc2327}, !- Space or SpaceType Name
  ,                                       !- Schedule Name
  Flow/ExteriorArea,                      !- Design Flow Rate Calculation Method
  ,                                       !- Design Flow Rate {m3/s}
  ,                                       !- Flow per Space Floor Area {m3/s-m2}
  0.000226568,                            !- Flow per Exterior Surface Area {m3/s-m2}
  ,                                       !- Air Changes per Hour {1/hr}
  ,                                       !- Constant Term Coefficient
  ,                                       !- Temperature Term Coefficient
  ,                                       !- Velocity Term Coefficient
  ;                                       !- Velocity Squared Term Coefficient

OS:Schedule:Ruleset,
  {1b9e3d01-dba3-44f4-bcf9-fe3f42c4f645}, ! Handle
  SmallHotel Infil Half On,               ! Name
  {f25c0716-74c2-48e0-a44d-8ea3e4a22d70}, ! Schedule Type Limits Name
  {eef68c17-e08a-42f3-bc81-4282dde470c6}, ! Default Day Schedule Name
  {9dbae24c-0f03-4985-ac0e-a2fbb47864e3}, ! Summer Design Day Schedule Name
  {84807006-b251-4962-a171-0124d529fb6d}; ! Winter Design Day Schedule Name

OS:Schedule:Day,
  {eef68c17-e08a-42f3-bc81-4282dde470c6}, ! Handle
  SmallHotel Infil Half On Default Schedule, ! Name
  {f25c0716-74c2-48e0-a44d-8ea3e4a22d70}, ! Schedule Type Limits Name
  ,                                       ! Interpolate to Timestep
  24,                                     !- Hour 1
  0,                                      !- Minute 1
  0.5;                                    !- Value Until Time 1

OS:Schedule:Day,
  {9dbae24c-0f03-4985-ac0e-a2fbb47864e3}, ! Handle
  SmallHotel Infil Half On Summer Design Day, ! Name
  {f25c0716-74c2-48e0-a44d-8ea3e4a22d70}, ! Schedule Type Limits Name
  ,                                       ! Interpolate to Timestep
  24,                                     ! Hour 1
  0,                                      ! Minute 1
  0.5;                                    ! Value Until Time 1

OS:Schedule:Day,
  {84807006-b251-4962-a171-0124d529fb6d}, ! Handle
  SmallHotel Infil Half On Winter Design Day, ! Name
  {f25c0716-74c2-48e0-a44d-8ea3e4a22d70}, ! Schedule Type Limits Name
  ,                                       ! Interpolate to Timestep
  24,                                     ! Hour 1
  0,                                      ! Minute 1
  0.5;                                    ! Value Until Time 1

OS:ThermostatSetpoint:DualSetpoint,
  {065c222c-1e8d-4e55-b6cc-a27bf84497e4}, !- Handle
  189.1-2009 - SmHotel - Corridor - CZ4-8 Thermostat, !- Name
  {c9b2392c-0007-432e-be83-3d7680e20454}, !- Heating Setpoint Temperature Schedule Name
  {9188445f-7811-4f20-8b80-49d1376b05d8}; !- Cooling Setpoint Temperature Schedule Name

OS:Schedule:Ruleset,
  {c9b2392c-0007-432e-be83-3d7680e20454}, ! Handle
  SmallHotel HtgSetp,                     ! Name
  {2e539a81-c69c-444f-b977-01a7080d62d8}, ! Schedule Type Limits Name
  {c9a874ef-af5b-4bdd-b1ed-93397138d601}, ! Default Day Schedule Name
  {959a6359-d926-45b7-98dc-5b80833f8093}, ! Summer Design Day Schedule Name
  {7f8e7206-1a40-41ec-95c0-f608f58692a2}; ! Winter Design Day Schedule Name

OS:ScheduleTypeLimits,
  {2e539a81-c69c-444f-b977-01a7080d62d8}, !- Handle
  Temperature 42,                         !- Name
  ,                                       !- Lower Limit Value
  ,                                       !- Upper Limit Value
  Continuous,                             !- Numeric Type
  Temperature;                            !- Unit Type

OS:Schedule:Day,
  {c9a874ef-af5b-4bdd-b1ed-93397138d601}, ! Handle
  SmallHotel HtgSetp Default Schedule,    ! Name
  {2e539a81-c69c-444f-b977-01a7080d62d8}, ! Schedule Type Limits Name
  ,                                       ! Interpolate to Timestep
  24,                                     !- Hour 1
  0,                                      !- Minute 1
  21;                                     !- Value Until Time 1

OS:Schedule:Day,
  {959a6359-d926-45b7-98dc-5b80833f8093}, ! Handle
  SmallHotel HtgSetp Summer Design Day,   ! Name
  {2e539a81-c69c-444f-b977-01a7080d62d8}, ! Schedule Type Limits Name
  ,                                       ! Interpolate to Timestep
  24,                                     ! Hour 1
  0,                                      ! Minute 1
  21;                                     ! Value Until Time 1

OS:Schedule:Day,
  {7f8e7206-1a40-41ec-95c0-f608f58692a2}, ! Handle
  SmallHotel HtgSetp Winter Design Day,   ! Name
  {2e539a81-c69c-444f-b977-01a7080d62d8}, ! Schedule Type Limits Name
  ,                                       ! Interpolate to Timestep
  24,                                     ! Hour 1
  0,                                      ! Minute 1
  21;                                     ! Value Until Time 1

OS:Schedule:Ruleset,
  {9188445f-7811-4f20-8b80-49d1376b05d8}, ! Handle
  SmallHotel ClgSetp,                     ! Name
  {e248ab28-96d0-4322-a536-9e1e59d85d7a}, ! Schedule Type Limits Name
  {bf98d2a0-956d-40cd-a7b6-2222c0edfd5b}, ! Default Day Schedule Name
  {d7b6aa69-a624-4dd8-8ffa-10e0ab1f1c9d}, ! Summer Design Day Schedule Name
  {09748e00-285c-45b3-9af9-6a90efee4976}; ! Winter Design Day Schedule Name

OS:ScheduleTypeLimits,
  {e248ab28-96d0-4322-a536-9e1e59d85d7a}, !- Handle
  Temperature 35,                         !- Name
  ,                                       !- Lower Limit Value
  ,                                       !- Upper Limit Value
  Continuous,                             !- Numeric Type
  Temperature;                            !- Unit Type

OS:Schedule:Day,
  {bf98d2a0-956d-40cd-a7b6-2222c0edfd5b}, ! Handle
  SmallHotel ClgSetp Default Schedule,    ! Name
  {e248ab28-96d0-4322-a536-9e1e59d85d7a}, ! Schedule Type Limits Name
  ,                                       ! Interpolate to Timestep
  24,                                     !- Hour 1
  0,                                      !- Minute 1
  24;                                     !- Value Until Time 1

OS:Schedule:Day,
  {d7b6aa69-a624-4dd8-8ffa-10e0ab1f1c9d}, ! Handle
  SmallHotel ClgSetp Summer Design Day,   ! Name
  {e248ab28-96d0-4322-a536-9e1e59d85d7a}, ! Schedule Type Limits Name
  ,                                       ! Interpolate to Timestep
  24,                                     ! Hour 1
  0,                                      ! Minute 1
  24;                                     ! Value Until Time 1

OS:Schedule:Day,
  {09748e00-285c-45b3-9af9-6a90efee4976}, ! Handle
  SmallHotel ClgSetp Winter Design Day,   ! Name
  {e248ab28-96d0-4322-a536-9e1e59d85d7a}, ! Schedule Type Limits Name
  ,                                       ! Interpolate to Timestep
  24,                                     ! Hour 1
  0,                                      ! Minute 1
  24;                                     ! Value Until Time 1

OS:SpaceType,
  {92dd82e4-07ba-41e1-8b04-04dcf0ccad23}, !- Handle
  189.1-2009 - SmHotel - Exercise - CZ4-8, !- Name
  ,                                       !- Default Construction Set Name
  {75150f6e-e29d-438e-ab38-d4a13b724186}, !- Default Schedule Set Name
  {f1182abd-50e4-4b07-a895-bf375c729852}, !- Group Rendering Name
  {51627935-d526-43dd-97ea-1777d5d1d890}, !- Design Specification Outdoor Air Object Name
  SmallHotel,                             !- Standards Building Type
  Exercise;                               !- Standards Space Type

OS:Rendering:Color,
  {f1182abd-50e4-4b07-a895-bf375c729852}, !- Handle
  Rendering Color 2,                      !- Name
  154,                                    !- Rendering Red Value
  230,                                    !- Rendering Green Value
  120;                                    !- Rendering Blue Value

OS:DefaultScheduleSet,
  {75150f6e-e29d-438e-ab38-d4a13b724186}, !- Handle
  189.1-2009 - SmHotel - Exercise - CZ4-8 Schedule Set, !- Name
  ,                                       !- Hours of Operation Schedule Name
  {6ea2b609-47b2-4cda-a0ea-59ab6b1113d2}, !- Number of People Schedule Name
  {a8db75f5-61c6-437e-a3c9-b49a4802c3ee}, !- People Activity Level Schedule Name
  {492e726b-ee90-41d8-bfe4-0c71c6d31f41}, !- Lighting Schedule Name