
OS:Version,
  {6e9465f4-04a6-4a93-8594-895c61914363}, !- Handle
  2.4.0;                                  !- Version Identifier

OS:ClimateZones,
  {8a3ac41c-57d4-48e4-a48e-1f232e262211}, !- Handle
  ,                                       !- Active Institution
  ,                                       !- Active Year
  ASHRAE,                                 !- Climate Zone Institution Name 1
  ANSI/ASHRAE Standard 169,               !- Climate Zone Document Name 1
  2006,                                   !- Climate Zone Document Year 1
  ,                                       !- Climate Zone Value 1
  CEC,                                    !- Climate Zone Institution Name 2
  California Climate Zone Descriptions,   !- Climate Zone Document Name 2
  1995,                                   !- Climate Zone Document Year 2
  ;                                       !- Climate Zone Value 2

OS:LifeCycleCost:Parameters,
  {1d4d0f18-e6dd-45c8-896c-f4f2a89e6ae5}, !- Handle
  FEMP,                                   !- Analysis Type
  ,                                       !- Discounting Convention
  ,                                       !- Inflation Approach
  ,                                       !- Real Discount Rate
  ,                                       !- Nominal Discount Rate
  ,                                       !- Inflation
  ,                                       !- Base Date Month
  ,                                       !- Base Date Year
  ,                                       !- Service Date Month
  ,                                       !- Service Date Year
  ,                                       !- Length of Study Period in Years
  ,                                       !- Tax Rate
  ,                                       !- Depreciation Method
  Yes;                                    !- Use NIST Fuel Escalation Rates

OS:YearDescription,
  {c1349a5a-d7e1-4ed9-8e5b-24480649c25c}, !- Handle
  ,                                       !- Calendar Year
  Sunday;                                 !- Day of Week for Start Day

OS:RadianceParameters,
  {8297fd56-36de-4b79-a182-b7636f4ae3e3}, !- Handle
  1,                                      !- Accumulated Rays per Record
  0,                                      !- Direct Threshold
  1,                                      !- Direct Certainty
  1,                                      !- Direct Jitter
  1,                                      !- Direct Pretest
  6,                                      !- Ambient Bounces VMX
  2,                                      !- Ambient Bounces DMX
  4050,                                   !- Ambient Divisions VMX
  512,                                    !- Ambient Divisions DMX
  256,                                    !- Ambient Supersamples
  0.001,                                  !- Limit Weight VMX
  0.001,                                  !- Limit Weight DMX
  500,                                    !- Klems Sampling Density
  146;                                    !- Sky Discretization Resolution

OS:SimulationControl,
  {7c57f4fc-548f-44e7-a438-1feca6a75629}; !- Handle

OS:Sizing:Parameters,
  {ee365675-827e-489e-9a24-0f596988dec4}, !- Handle
  1.25,                                   !- Heating Sizing Factor
  1.15;                                   !- Cooling Sizing Factor

OS:ProgramControl,
  {8a7b938e-cdcb-40af-82b1-79c267c36bae}; !- Handle

OS:Timestep,
  {31824a36-2f0f-4919-a534-cdb00e20d2e0}, !- Handle
  6;                                      !- Number of Timesteps per Hour

OS:OutputControl:ReportingTolerances,
  {275082a5-6cfd-4756-972e-8810ab253e29}; !- Handle

OS:ConvergenceLimits,
  {fcca1605-8471-4f2f-a485-a59582311771}; !- Handle

OS:ShadowCalculation,
  {d875de65-75c7-4d9d-883e-07bd79421b67}, !- Handle
  7,                                      !- Calculation Frequency
  15000;                                  !- Maximum Figures in Shadow Overlap Calculations

OS:SurfaceConvectionAlgorithm:Inside,
  {5add9a33-b760-4e82-a0f9-3ae0e369b9c4}, !- Handle
  TARP;                                   !- Algorithm

OS:SurfaceConvectionAlgorithm:Outside,
  {0257be16-14fc-418e-bc73-178201ccc4ec}, !- Handle
  DOE-2;                                  !- Algorithm

OS:HeatBalanceAlgorithm,
  {5a22c4c4-a6a6-4769-b0a8-f79498f98a6d}, !- Handle
  ConductionTransferFunction,             !- Algorithm
  200;                                    !- Surface Temperature Upper Limit {C}

OS:ZoneAirHeatBalanceAlgorithm,
  {24c912f8-6f7f-4792-8ea0-a8d47b3c41a1}, !- Handle
  AnalyticalSolution;                     !- Algorithm

OS:ZoneAirContaminantBalance,
  {07e7d420-4b9b-4760-8a70-01b36aa6074f}; !- Handle

OS:ZoneCapacitanceMultiplier:ResearchSpecial,
  {91056672-db13-4057-9cb7-7ac44d24bfc5}, !- Handle
  ,                                       !- Temperature Capacity Multiplier
  ,                                       !- Humidity Capacity Multiplier
  ;                                       !- Carbon Dioxide Capacity Multiplier

OS:RunPeriod,
  {17c33f47-c9b9-463a-84bc-12596f349148}, !- Handle
  Run Period 1,                           !- Name
  1,                                      !- Begin Month
  1,                                      !- Begin Day of Month
  12,                                     !- End Month
  31,                                     !- End Day of Month
  ,                                       !- Use Weather File Holidays and Special Days
  ,                                       !- Use Weather File Daylight Saving Period
  ,                                       !- Apply Weekend Holiday Rule
  ,                                       !- Use Weather File Rain Indicators
  ,                                       !- Use Weather File Snow Indicators
  ;                                       !- Number of Times Runperiod to be Repeated

OS:Building,
  {e0ce3521-4e53-4eca-8017-2f1c8dec2b50}, !- Handle
  Building 1,                             !- Name
  ,                                       !- Building Sector Type
  ,                                       !- North Axis {deg}
  ,                                       !- Nominal Floor to Floor Height {m}
  {9436e75c-a672-4db9-b3ac-0dcd0e03a23d}, !- Space Type Name
  {d586fdb8-04a4-46a3-80ea-c687f0a4cdd7}, !- Default Construction Set Name
  ,                                       !- Default Schedule Set Name
  ,                                       !- Standards Number of Stories
  ,                                       !- Standards Number of Above Ground Stories
  ,                                       !- Standards Building Type
  ,                                       !- Standards Number of Living Units
  ,                                       !- Relocatable
  ;                                       !- Nominal Floor to Ceiling Height {m}

OS:Facility,
  {b6e6be84-f909-42a5-9deb-ef70c0296721}; !- Handle

OS:Site,
  {f38b0e3c-04e1-4822-940e-9b46c436222c}, !- Handle
  Shanghai,                               !- Name
  31.4,                                   !- Latitude {deg}
  121.45,                                 !- Longitude {deg}
  8,                                      !- Time Zone {hr}
  5.5,                                    !- Elevation {m}
  ;                                       !- Terrain

OS:SpaceType,
  {f95c6896-0216-4035-a331-f34afe0a6031}, !- Handle
  189.1-2009 - Office - BreakRoom - CZ4-8, !- Name
  ,                                       !- Default Construction Set Name
  {08f84f00-6540-4c7f-b2ff-2221b6c4c25d}, !- Default Schedule Set Name
  {a4785b5b-5b26-4727-b4b5-697d9aa02a4b}, !- Group Rendering Name
  {dfb05ce5-74b5-4e87-9956-c6986b20e779}, !- Design Specification Outdoor Air Object Name
  Office,                                 !- Standards Building Type
  BreakRoom;                              !- Standards Space Type

OS:Rendering:Color,
  {a4785b5b-5b26-4727-b4b5-697d9aa02a4b}, !- Handle
  Rendering Color 1,                      !- Name
  230,                                    !- Rendering Red Value
  157,                                    !- Rendering Green Value
  120;                                    !- Rendering Blue Value

OS:DefaultScheduleSet,
  {08f84f00-6540-4c7f-b2ff-2221b6c4c25d}, !- Handle
  189.1-2009 - Office - BreakRoom - CZ4-8 Schedule Set, !- Name
  ,                                       !- Hours of Operation Schedule Name
  {92e4411a-9df4-443c-aae0-08dc9c835c5a}, !- Number of People Schedule Name
  {38927797-9b26-488a-962a-020053445b42}, !- People Activity Level Schedule Name
  {9f4634b6-ed0f-4f49-931b-bf597d7d2366}, !- Lighting Schedule Name
  {3cdb26ec-b985-4f8b-b2c2-ae3af658ef67}, !- Electric Equipment Schedule Name
  ,                                       !- Gas Equipment Schedule Name
  ,                                       !- Hot Water Equipment Schedule Name
  {c572b4ba-332f-404a-b6ae-a7b278ef7e8a}, !- Infiltration Schedule Name
  ,                                       !- Steam Equipment Schedule Name
  ;                                       !- Other Equipment Schedule Name

OS:Lights:Definition,
  {34f4da49-9515-4833-9276-85497cef7a48}, !- Handle
  189.1-2009 - Office - BreakRoom - CZ4-8 Lights Definition, !- Name
  Watts/Area,                             !- Design Level Calculation Method
  ,                                       !- Lighting Level {W}
  11.6250232500465,                       !- Watts per Space Floor Area {W/m2}
  ;                                       !- Watts per Person {W/person}

OS:Lights,
  {2ef0c03f-825d-4a5c-aced-7b0d5545c158}, !- Handle
  189.1-2009 - Office - BreakRoom - CZ4-8 Lights, !- Name
  {34f4da49-9515-4833-9276-85497cef7a48}, !- Lights Definition Name
  {f95c6896-0216-4035-a331-f34afe0a6031}, !- Space or SpaceType Name
  ,                                       !- Schedule Name
  1,                                      !- Fraction Replaceable
  ,                                       !- Multiplier
  General;                                !- End-Use Subcategory

OS:Schedule:Ruleset,
  {9f4634b6-ed0f-4f49-931b-bf597d7d2366}, ! Handle
  Office Bldg Light,                      ! Name
  {664b2699-b908-47d3-b791-39cf728a771b}, ! Schedule Type Limits Name
  {ebed4c13-c2c4-489b-8ef8-4c1f6fd3a589}, ! Default Day Schedule Name
  {5a01dbd5-88b9-4b0e-b52f-2b4c221a2d70}, ! Summer Design Day Schedule Name
  {d1746025-360e-43f8-a68b-2253427fb1b8}; ! Winter Design Day Schedule Name

OS:ScheduleTypeLimits,
  {664b2699-b908-47d3-b791-39cf728a771b}, ! Handle
  Fraction,                               ! Name
  0,                                      ! Lower Limit Value
  1,                                      ! Upper Limit Value
  CONTINUOUS;                             ! Numeric Type

OS:Schedule:Day,
  {ebed4c13-c2c4-489b-8ef8-4c1f6fd3a589}, ! Handle
  Office Bldg Light Default Schedule,     ! Name
  {664b2699-b908-47d3-b791-39cf728a771b}, ! Schedule Type Limits Name
  ,                                       ! Interpolate to Timestep
  5,                                      !- Hour 1
  0,                                      !- Minute 1
  0.05,                                   !- Value Until Time 1
  7,                                      !- Hour 2
  0,                                      !- Minute 2
  0.1,                                    !- Value Until Time 2
  8,                                      !- Hour 3
  0,                                      !- Minute 3
  0.3,                                    !- Value Until Time 3
  17,                                     !- Hour 4
  0,                                      !- Minute 4
  0.9,                                    !- Value Until Time 4
  18,                                     !- Hour 5
  0,                                      !- Minute 5
  0.7,                                    !- Value Until Time 5
  20,                                     !- Hour 6
  0,                                      !- Minute 6
  0.5,                                    !- Value Until Time 6
  22,                                     !- Hour 7
  0,                                      !- Minute 7
  0.3,                                    !- Value Until Time 7
  23,                                     !- Hour 8
  0,                                      !- Minute 8
  0.1,                                    !- Value Until Time 8
  24,                                     !- Hour 9
  0,                                      !- Minute 9
  0.05;                                   !- Value Until Time 9

OS:Schedule:Day,
  {5a01dbd5-88b9-4b0e-b52f-2b4c221a2d70}, ! Handle
  Office Bldg Light Summer Design Day,    ! Name
  {664b2699-b908-47d3-b791-39cf728a771b}, ! Schedule Type Limits Name
  ,                                       ! Interpolate to Timestep
  24,                                     ! Hour 1
  0,                                      ! Minute 1
  1;                                      ! Value Until Time 1

OS:Schedule:Day,
  {d1746025-360e-43f8-a68b-2253427fb1b8}, ! Handle
  Office Bldg Light Winter Design Day,    ! Name
  {664b2699-b908-47d3-b791-39cf728a771b}, ! Schedule Type Limits Name
  ,                                       ! Interpolate to Timestep
  24,                                     ! Hour 1
  0,                                      ! Minute 1
  0;                                      ! Value Until Time 1

OS:Schedule:Rule,
  {7f26bf9c-54fa-48d1-a7e2-f995c552b77c}, ! Handle
  Office Bldg Light Rule 1,               ! Name
  {9f4634b6-ed0f-4f49-931b-bf597d7d2366}, ! Schedule Ruleset Name
  0,                                      ! Rule Order
  {071cfb33-0fe5-48c4-8275-f39508015bdc}, ! Day Schedule Name
  Yes,                                    ! Apply Sunday
  No,                                     ! Apply Monday
  No,                                     ! Apply Tuesday
  No,                                     ! Apply Wednesday
  No,                                     ! Apply Thursday
  No,                                     ! Apply Friday
  No,                                     ! Apply Saturday
  ,                                       ! Apply Holiday
  DateRange,                              ! Date Specification Type
  1,                                      ! Start Month
  1,                                      ! Start Day
  12,                                     ! End Month
  31;                                     ! End Day

OS:Schedule:Day,
  {071cfb33-0fe5-48c4-8275-f39508015bdc}, ! Handle
  Office Bldg Light Rule 1 Day Schedule,  ! Name
  {664b2699-b908-47d3-b791-39cf728a771b}, ! Schedule Type Limits Name
  ,                                       ! Interpolate to Timestep
  24,                                     ! Hour 1
  0,                                      ! Minute 1
  0.050000000000000003;                   ! Value Until Time 1

OS:Schedule:Rule,
  {d351d8bb-1efb-4026-a5d8-9ef2331e8ed9}, ! Handle
  Office Bldg Light Rule 2,               ! Name
  {9f4634b6-ed0f-4f49-931b-bf597d7d2366}, ! Schedule Ruleset Name
  1,                                      ! Rule Order
  {b4c2f8fd-a93b-4715-99ff-ffa0916526eb}, ! Day Schedule Name
  No,                                     ! Apply Sunday
  No,                                     ! Apply Monday
  No,                                     ! Apply Tuesday
  No,                                     ! Apply Wednesday
  No,                                     ! Apply Thursday
  No,                                     ! Apply Friday
  Yes,                                    ! Apply Saturday
  ,                                       ! Apply Holiday
  DateRange,                              ! Date Specification Type
  1,                                      ! Start Month
  1,                                      ! Start Day
  12,                                     ! End Month
  31;                                     ! End Day

OS:Schedule:Day,
  {b4c2f8fd-a93b-4715-99ff-ffa0916526eb}, ! Handle
  Office Bldg Light Rule 2 Day Schedule,  ! Name
  {664b2699-b908-47d3-b791-39cf728a771b}, ! Schedule Type Limits Name
  ,                                       ! Interpolate to Timestep
  6,                                      ! Hour 1
  0,                                      ! Minute 1
  0.050000000000000003,                   ! Value Until Time 1
  8,                                      ! Hour 2
  0,                                      ! Minute 2
  0.10000000000000001,                    ! Value Until Time 2
  14,                                     ! Hour 3
  0,                                      ! Minute 3
  0.5,                                    ! Value Until Time 3
  17,                                     ! Hour 4
  0,                                      ! Minute 4
  0.14999999999999999,                    ! Value Until Time 4
  24,                                     ! Hour 5
  0,                                      ! Minute 5
  0.050000000000000003;                   ! Value Until Time 5

OS:DesignSpecification:OutdoorAir,
  {dfb05ce5-74b5-4e87-9956-c6986b20e779}, !- Handle
  189.1-2009 - Office - BreakRoom - CZ4-8 Ventilation, !- Name
  Sum,                                    !- Outdoor Air Method
  0.007079211648,                         !- Outdoor Air Flow per Person {m3/s-person}
  ,                                       !- Outdoor Air Flow per Floor Area {m3/s-m2}
  ,                                       !- Outdoor Air Flow Rate {m3/s}
  ,                                       !- Outdoor Air Flow Air Changes per Hour {1/hr}
  ;                                       !- Outdoor Air Flow Rate Fraction Schedule Name

OS:People:Definition,
  {d691b059-024a-4902-a0fa-e1c1c4b2d828}, !- Handle
  189.1-2009 - Office - BreakRoom - CZ4-8 People Definition, !- Name
  People/Area,                            !- Number of People Calculation Method
  ,                                       !- Number of People {people}
  0.538195520835486,                      !- People per Space Floor Area {person/m2}
  ,                                       !- Space Floor Area per Person {m2/person}
  0.3;                                    !- Fraction Radiant

OS:People,
  {ad3acf3a-549e-4f02-a69e-d514154210a2}, !- Handle
  189.1-2009 - Office - BreakRoom - CZ4-8 People, !- Name
  {d691b059-024a-4902-a0fa-e1c1c4b2d828}, !- People Definition Name
  {f95c6896-0216-4035-a331-f34afe0a6031}, !- Space or SpaceType Name
  ,                                       !- Number of People Schedule Name
  ,                                       !- Activity Level Schedule Name
  ,                                       !- Surface Name/Angle Factor List Name
  ,                                       !- Work Efficiency Schedule Name
  ,                                       !- Clothing Insulation Schedule Name
  ,                                       !- Air Velocity Schedule Name
  1;                                      !- Multiplier

OS:Schedule:Ruleset,
  {92e4411a-9df4-443c-aae0-08dc9c835c5a}, ! Handle
  Office Misc Occ,                        ! Name
  {664b2699-b908-47d3-b791-39cf728a771b}, ! Schedule Type Limits Name
  {a0175fd2-e735-4f6b-bad2-571230e98af4}, ! Default Day Schedule Name
  {324e914e-5f22-4dc3-a3bd-056744cbe177}, ! Summer Design Day Schedule Name
  {9aa20f42-162e-4543-a36c-6181f21e3764}; ! Winter Design Day Schedule Name

OS:Schedule:Day,
  {a0175fd2-e735-4f6b-bad2-571230e98af4}, ! Handle
  Office Bldg Occ Default Schedule 1,     ! Name
  {664b2699-b908-47d3-b791-39cf728a771b}, ! Schedule Type Limits Name
  ,                                       ! Interpolate to Timestep
  6,                                      !- Hour 1
  0,                                      !- Minute 1
  0,                                      !- Value Until Time 1
  7,                                      !- Hour 2
  0,                                      !- Minute 2
  0.100000001490116,                      !- Value Until Time 2
  8,                                      !- Hour 3
  0,                                      !- Minute 3
  0.200000002980232,                      !- Value Until Time 3
  20,                                     !- Hour 4
  0,                                      !- Minute 4
  0.400000005960464,                      !- Value Until Time 4
  22,                                     !- Hour 5
  0,                                      !- Minute 5
  0.100000001490116,                      !- Value Until Time 5
  24,                                     !- Hour 6
  0,                                      !- Minute 6
  0.0500000007450581;                     !- Value Until Time 6

OS:Schedule:Day,
  {324e914e-5f22-4dc3-a3bd-056744cbe177}, ! Handle
  Office Bldg Occ Summer Design Day 1,    ! Name
  {664b2699-b908-47d3-b791-39cf728a771b}, ! Schedule Type Limits Name
  ,                                       ! Interpolate to Timestep
  6,                                      ! Hour 1
  0,                                      ! Minute 1
  0,                                      ! Value Until Time 1
  22,                                     ! Hour 2
  0,                                      ! Minute 2
  1,                                      ! Value Until Time 2
  24,                                     ! Hour 3
  0,                                      ! Minute 3
  0.050000000000000003;                   ! Value Until Time 3

OS:Schedule:Day,
  {9aa20f42-162e-4543-a36c-6181f21e3764}, ! Handle
  Office Bldg Occ Winter Design Day 1,    ! Name
  {664b2699-b908-47d3-b791-39cf728a771b}, ! Schedule Type Limits Name
  ,                                       ! Interpolate to Timestep
  24,                                     ! Hour 1
  0,                                      ! Minute 1
  0;                                      ! Value Until Time 1

OS:Schedule:Rule,
  {519d7c90-15c0-43e2-aac4-43fd3710823d}, ! Handle
  Office Misc Occ Rule 1,                 ! Name
  {92e4411a-9df4-443c-aae0-08dc9c835c5a}, ! Schedule Ruleset Name
  0,                                      ! Rule Order
  {60a334db-1eab-41cf-ac42-7c50ba6f8e2f}, ! Day Schedule Name
  Yes,                                    ! Apply Sunday
  No,                                     ! Apply Monday
  No,                                     ! Apply Tuesday
  No,                                     ! Apply Wednesday
  No,                                     ! Apply Thursday
  No,                                     ! Apply Friday
  No,                                     ! Apply Saturday
  ,                                       ! Apply Holiday
  DateRange,                              ! Date Specification Type
  1,                                      ! Start Month
  1,                                      ! Start Day
  12,                                     ! End Month
  31;                                     ! End Day

OS:Schedule:Day,
  {60a334db-1eab-41cf-ac42-7c50ba6f8e2f}, ! Handle
  Office Bldg Occ Rule 1 Day Schedule 1,  ! Name
  {664b2699-b908-47d3-b791-39cf728a771b}, ! Schedule Type Limits Name
  ,                                       ! Interpolate to Timestep
  24,                                     ! Hour 1
  0,                                      ! Minute 1
  0;                                      ! Value Until Time 1

OS:Schedule:Rule,
  {016d6e0b-f9b4-4835-abf0-76d22da3352e}, ! Handle
  Office Misc Occ Rule 2,                 ! Name
  {92e4411a-9df4-443c-aae0-08dc9c835c5a}, ! Schedule Ruleset Name
  1,                                      ! Rule Order
  {895d49ae-4f1b-4dac-8360-1d10146732c5}, ! Day Schedule Name
  No,                                     ! Apply Sunday
  No,                                     ! Apply Monday
  No,                                     ! Apply Tuesday
  No,                                     ! Apply Wednesday
  No,                                     ! Apply Thursday
  No,                                     ! Apply Friday
  Yes,                                    ! Apply Saturday
  ,                                       ! Apply Holiday
  DateRange,                              ! Date Specification Type
  1,                                      ! Start Month
  1,                                      ! Start Day
  12,                                     ! End Month
  31;                                     ! End Day

OS:Schedule:Day,
  {895d49ae-4f1b-4dac-8360-1d10146732c5}, ! Handle
  Office Bldg Occ Rule 2 Day Schedule 1,  ! Name
  {664b2699-b908-47d3-b791-39cf728a771b}, ! Schedule Type Limits Name
  ,                                       ! Interpolate to Timestep
  6,                                      !- Hour 1
  0,                                      !- Minute 1
  0,                                      !- Value Until Time 1
  8,                                      !- Hour 2
  0,                                      !- Minute 2
  0.100000001490116,                      !- Value Until Time 2
  14,                                     !- Hour 3
  0,                                      !- Minute 3
  0.25,                                   !- Value Until Time 3
  17,                                     !- Hour 4
  0,                                      !- Minute 4
  0.100000001490116,                      !- Value Until Time 4
  24,                                     !- Hour 5
  0,                                      !- Minute 5
  0;                                      !- Value Until Time 5

OS:Schedule:Ruleset,
  {38927797-9b26-488a-962a-020053445b42}, ! Handle
  Office Activity,                        ! Name
  {ac792b1a-398e-4eee-a239-6458b4cff2bb}, ! Schedule Type Limits Name
  {54c91cea-f8b8-4e72-a1e0-39d4039e7fe1}, ! Default Day Schedule Name
  {a4e0ca07-5f72-4f9a-9248-3da3a6af7356}, ! Summer Design Day Schedule Name
  {a38a4a67-2474-4584-aa0b-3aa984d6841e}; ! Winter Design Day Schedule Name

OS:ScheduleTypeLimits,
  {ac792b1a-398e-4eee-a239-6458b4cff2bb}, !- Handle
  ActivityLevel,                          !- Name
  0,                                      !- Lower Limit Value
  ,                                       !- Upper Limit Value
  Continuous,                             !- Numeric Type
  ActivityLevel;                          !- Unit Type

OS:Schedule:Day,
  {54c91cea-f8b8-4e72-a1e0-39d4039e7fe1}, ! Handle
  Office Activity Default Schedule,       ! Name
  {ac792b1a-398e-4eee-a239-6458b4cff2bb}, ! Schedule Type Limits Name
  ,                                       ! Interpolate to Timestep
  24,                                     !- Hour 1
  0,                                      !- Minute 1
  132;                                    !- Value Until Time 1

OS:Schedule:Day,
  {a4e0ca07-5f72-4f9a-9248-3da3a6af7356}, ! Handle
  Office Activity Summer Design Day,      ! Name
  {ac792b1a-398e-4eee-a239-6458b4cff2bb}, ! Schedule Type Limits Name
  ,                                       ! Interpolate to Timestep
  24,                                     !- Hour 1
  0,                                      !- Minute 1
  132;                                    !- Value Until Time 1

OS:Schedule:Day,
  {a38a4a67-2474-4584-aa0b-3aa984d6841e}, ! Handle
  Office Activity Winter Design Day,      ! Name
  {ac792b1a-398e-4eee-a239-6458b4cff2bb}, ! Schedule Type Limits Name
  ,                                       ! Interpolate to Timestep
  24,                                     !- Hour 1
  0,                                      !- Minute 1
  132;                                    !- Value Until Time 1

OS:SpaceInfiltration:DesignFlowRate,
  {d7ac5c05-9a5e-48e4-ab56-53332fcf2fc2}, !- Handle
  189.1-2009 - Office - BreakRoom - CZ4-8 Infiltration, !- Name
  {f95c6896-0216-4035-a331-f34afe0a6031}, !- Space or SpaceType Name
  ,                                       !- Schedule Name
  Flow/ExteriorArea,                      !- Design Flow Rate Calculation Method
  ,                                       !- Design Flow Rate {m3/s}
  ,                                       !- Flow per Space Floor Area {m3/s-m2}
  0.000226568,                            !- Flow per Exterior Surface Area {m3/s-m2}
  ,                                       !- Air Changes per Hour {1/hr}
  ,                                       !- Constant Term Coefficient
  ,                                       !- Temperature Term Coefficient
  ,                                       !- Velocity Term Coefficient
  ;                                       !- Velocity Squared Term Coefficient

OS:Schedule:Ruleset,
  {c572b4ba-332f-404a-b6ae-a7b278ef7e8a}, ! Handle
  Office Infil Quarter On,                ! Name
  {664b2699-b908-47d3-b791-39cf728a771b}, ! Schedule Type Limits Name
  {a3ccd982-383f-438e-ae12-ad2b46ececa8}, ! Default Day Schedule Name
  {c03d7f45-945a-4dec-82f2-749a42c57818}, ! Summer Design Day Schedule Name
  {e9bd6ee0-04d8-48a0-8cbb-c61fd6bd287c}; ! Winter Design Day Schedule Name

OS:Schedule:Day,
  {a3ccd982-383f-438e-ae12-ad2b46ececa8}, ! Handle
  Office Infil Quarter On Default Schedule, ! Name
  {664b2699-b908-47d3-b791-39cf728a771b}, ! Schedule Type Limits Name
  ,                                       ! Interpolate to Timestep
  6,                                      !- Hour 1
  0,                                      !- Minute 1
  1,                                      !- Value Until Time 1
  22,                                     !- Hour 2
  0,                                      !- Minute 2