
OS:Version,
  {5c405844-6d69-4560-b1ab-f2a191eac91a}, !- Handle
  1.11.0;                                 !- Version Identifier

OS:SpaceType,
  {d83c9d8c-b4ea-4352-92bc-43a5e8551039}, !- Handle
  189.1-2009 - Office - BreakRoom - CZ1-3, !- Name
  ,                                       !- Default Construction Set Name
  {8b191964-f6ab-4bcb-b215-f452d03d0b47}, !- Default Schedule Set Name
  {d1e86687-6885-4070-81da-3a576f17ff5c}, !- Group Rendering Name
  {67f2822d-9200-410d-bad4-ca1adb4cbb77}, !- Design Specification Outdoor Air Object Name
  Office,                                 !- Standards Building Type
  BreakRoom;                              !- Standards Space Type

OS:Rendering:Color,
  {d1e86687-6885-4070-81da-3a576f17ff5c}, !- Handle
  Rendering Color 1,                      !- Name
  230,                                    !- Rendering Red Value
  157,                                    !- Rendering Green Value
  120;                                    !- Rendering Blue Value

OS:DefaultScheduleSet,
  {3f64b7db-745b-40b0-bb02-6ec871a396ef}, !- Handle
  189.1-2009 - Office - BreakRoom - CZ1-3 Schedule Set, !- Name
  ,                                       !- Hours of Operation Schedule Name
  {c46af6b1-d997-440b-a480-2b785127791c}, !- Number of People Schedule Name
  {2eaafb36-c8d9-471a-8f30-6e2188bd0fdb}, !- People Activity Level Schedule Name
  {8a273f29-9e00-4685-a53d-4e9734fa3bef}, !- Lighting Schedule Name
  {d4102340-9627-4371-b8f6-a3790caa5373}, !- Electric Equipment Schedule Name
  ,                                       !- Gas Equipment Schedule Name
  ,                                       !- Hot Water Equipment Schedule Name
  {5071fc8f-2a43-420e-b853-89de3fd548e0}, !- Infiltration Schedule Name
  ,                                       !- Steam Equipment Schedule Name
  ;                                       !- Other Equipment Schedule Name

OS:Lights:Definition,
  {2be0344f-10c3-4095-86fd-81db27963ad5}, !- Handle
  189.1-2009 - Office - BreakRoom - CZ1-3 Lights Definition, !- Name
  Watts/Area,                             !- Design Level Calculation Method
  ,                                       !- Lighting Level {W}
  11.6250232500465,                       !- Watts per Space Floor Area {W/m2}
  ;                                       !- Watts per Person {W/person}

OS:Lights,
  {8d653251-85b6-4f77-81d6-0d1ce4ea7ee7}, !- Handle
  189.1-2009 - Office - BreakRoom - CZ1-3 Lights, !- Name
  {2be0344f-10c3-4095-86fd-81db27963ad5}, !- Lights Definition Name
  {d83c9d8c-b4ea-4352-92bc-43a5e8551039}; !- Space or SpaceType Name

OS:Schedule:Ruleset,
  {8a273f29-9e00-4685-a53d-4e9734fa3bef}, ! Handle
  Office Bldg Light,                      ! Name
  {af9d9c36-2d5f-4871-8dda-ff179c7ff3db}, ! Schedule Type Limits Name
  {f4b4f1e1-6a43-44bd-a8f2-a74c513199be}, ! Default Day Schedule Name
  {c390a85c-d5e7-4c2d-8853-58583d31d4e3}, ! Summer Design Day Schedule Name
  {dd4723de-ece6-49f1-b48c-4ca52d8c8360}; ! Winter Design Day Schedule Name

OS:ScheduleTypeLimits,
  {af9d9c36-2d5f-4871-8dda-ff179c7ff3db}, ! Handle
  Fraction,                               ! Name
  0,                                      ! Lower Limit Value
  1,                                      ! Upper Limit Value
  CONTINUOUS;                             ! Numeric Type

OS:Schedule:Day,
  {f4b4f1e1-6a43-44bd-a8f2-a74c513199be}, ! Handle
  Office Bldg Light Default Schedule,     ! Name
  {af9d9c36-2d5f-4871-8dda-ff179c7ff3db}, ! Schedule Type Limits Name
  ,                                       ! Interpolate to Timestep
  8,                                      !- Hour 1
  0,                                      !- Minute 1
  0.0500000007450581,                     !- Value Until Time 1
  17,                                     !- Hour 2
  0,                                      !- Minute 2
  0.881009638309479,                      !- Value Until Time 2
  24,                                     !- Hour 3
  0,                                      !- Minute 3
  0;                                      !- Value Until Time 3

OS:Schedule:Day,
  {c390a85c-d5e7-4c2d-8853-58583d31d4e3}, ! Handle
  Office Bldg Light Summer Design Day,    ! Name
  {af9d9c36-2d5f-4871-8dda-ff179c7ff3db}, ! Schedule Type Limits Name
  ,                                       ! Interpolate to Timestep
  24,                                     ! Hour 1
  0,                                      ! Minute 1
  1;                                      ! Value Until Time 1

OS:Schedule:Day,
  {dd4723de-ece6-49f1-b48c-4ca52d8c8360}, ! Handle
  Office Bldg Light Winter Design Day,    ! Name
  {af9d9c36-2d5f-4871-8dda-ff179c7ff3db}, ! Schedule Type Limits Name
  ,                                       ! Interpolate to Timestep
  24,                                     ! Hour 1
  0,                                      ! Minute 1
  0;                                      ! Value Until Time 1

OS:Schedule:Rule,
  {101bb6fc-d0fc-4dd5-b953-30be7362193e}, ! Handle
  Office Bldg Light Rule 1,               ! Name
  {8a273f29-9e00-4685-a53d-4e9734fa3bef}, ! Schedule Ruleset Name
  0,                                      ! Rule Order
  {cab9d70e-56fd-4a11-b93a-30526ba080c7}, ! Day Schedule Name
  Yes,                                    ! Apply Sunday
  No,                                     ! Apply Monday
  No,                                     ! Apply Tuesday
  No,                                     ! Apply Wednesday
  No,                                     ! Apply Thursday
  No,                                     ! Apply Friday
  No,                                     ! Apply Saturday
  ,                                       ! Apply Holiday
  DateRange,                              ! Date Specification Type
  1,                                      ! Start Month
  1,                                      ! Start Day
  12,                                     ! End Month
  31;                                     ! End Day

OS:Schedule:Day,
  {cab9d70e-56fd-4a11-b93a-30526ba080c7}, ! Handle
  Office Bldg Light Rule 1 Day Schedule,  ! Name
  {af9d9c36-2d5f-4871-8dda-ff179c7ff3db}, ! Schedule Type Limits Name
  ,                                       ! Interpolate to Timestep
  24,                                     !- Hour 1
  0,                                      !- Minute 1
  0;                                      !- Value Until Time 1

OS:Schedule:Rule,
  {e5799452-8d36-4739-a94b-184f22c15de0}, ! Handle
  Office Bldg Light Rule 2,               ! Name
  {8a273f29-9e00-4685-a53d-4e9734fa3bef}, ! Schedule Ruleset Name
  1,                                      ! Rule Order
  {fd34a36a-f6bf-4a3e-b174-248c7bf8388a}, ! Day Schedule Name
  No,                                     ! Apply Sunday
  No,                                     ! Apply Monday
  No,                                     ! Apply Tuesday
  No,                                     ! Apply Wednesday
  No,                                     ! Apply Thursday
  No,                                     ! Apply Friday
  Yes,                                    ! Apply Saturday
  ,                                       ! Apply Holiday
  DateRange,                              ! Date Specification Type
  1,                                      ! Start Month
  1,                                      ! Start Day
  12,                                     ! End Month
  31;                                     ! End Day

OS:Schedule:Day,
  {fd34a36a-f6bf-4a3e-b174-248c7bf8388a}, ! Handle
  Office Bldg Light Rule 2 Day Schedule,  ! Name
  {af9d9c36-2d5f-4871-8dda-ff179c7ff3db}, ! Schedule Type Limits Name
  ,                                       ! Interpolate to Timestep
  24,                                     !- Hour 1
  0,                                      !- Minute 1
  0;                                      !- Value Until Time 1

OS:DesignSpecification:OutdoorAir,
  {67f2822d-9200-410d-bad4-ca1adb4cbb77}, !- Handle
  189.1-2009 - Office - BreakRoom - CZ1-3 Ventilation, !- Name
  Sum,                                    !- Outdoor Air Method
  0.007079211648,                         !- Outdoor Air Flow per Person {m3/s-person}
  ,                                       !- Outdoor Air Flow per Floor Area {m3/s-m2}
  ,                                       !- Outdoor Air Flow Rate {m3/s}
  ,                                       !- Outdoor Air Flow Air Changes per Hour {1/hr}
  ;                                       !- Outdoor Air Flow Rate Fraction Schedule Name

OS:People:Definition,
  {c42e1fab-f69a-49d5-a2c9-f14f1259af26}, !- Handle
  189.1-2009 - Office - BreakRoom - CZ1-3 People Definition, !- Name
  People/Area,                            !- Number of People Calculation Method
  ,                                       !- Number of People {people}
  0.538195520835486,                      !- People per Space Floor Area {person/m2}
  ,                                       !- Space Floor Area per Person {m2/person}
  0.3,                                    !- Fraction Radiant
  ,                                       !- Sensible Heat Fraction
  ,                                       !- Carbon Dioxide Generation Rate {m3/s-W}
  ,                                       !- Enable ASHRAE 55 Comfort Warnings
  ;                                       !- Mean Radiant Temperature Calculation Type

OS:People,
  {33239cd1-ad9a-4eea-84a8-7128e0617789}, !- Handle
  189.1-2009 - Office - BreakRoom - CZ1-3 People, !- Name
  {c42e1fab-f69a-49d5-a2c9-f14f1259af26}, !- People Definition Name
  {d83c9d8c-b4ea-4352-92bc-43a5e8551039}; !- Space or SpaceType Name

OS:Schedule:Ruleset,
  {be0538a4-3720-422e-85be-2e617795d558}, ! Handle
  MY MODIFYED Office Misc Occ CONFERENCE, ! Name
  {af9d9c36-2d5f-4871-8dda-ff179c7ff3db}, ! Schedule Type Limits Name
  {a76a9245-12f3-412e-b0b5-34665289bf21}, ! Default Day Schedule Name
  {a40809b5-8df2-4f21-a9ee-da939f1e5f66}, ! Summer Design Day Schedule Name
  {3393a682-e262-4bec-b7cf-fd6eec115ebc}; ! Winter Design Day Schedule Name

OS:Schedule:Day,
  {a76a9245-12f3-412e-b0b5-34665289bf21}, ! Handle
  Office Bldg Occ Default Schedule 1,     ! Name
  {af9d9c36-2d5f-4871-8dda-ff179c7ff3db}, ! Schedule Type Limits Name
  ,                                       ! Interpolate to Timestep
  8,                                      !- Hour 1
  0,                                      !- Minute 1
  0,                                      !- Value Until Time 1
  12,                                     !- Hour 2
  0,                                      !- Minute 2
  0.503444015979767,                      !- Value Until Time 2
  13,                                     !- Hour 3
  0,                                      !- Minute 3
  0,                                      !- Value Until Time 3
  20,                                     !- Hour 4
  0,                                      !- Minute 4
  0.249445289373398,                      !- Value Until Time 4
  24,                                     !- Hour 5
  0,                                      !- Minute 5
  0;                                      !- Value Until Time 5

OS:Schedule:Day,
  {a40809b5-8df2-4f21-a9ee-da939f1e5f66}, ! Handle
  Office Bldg Occ Summer Design Day 1,    ! Name
  {af9d9c36-2d5f-4871-8dda-ff179c7ff3db}, ! Schedule Type Limits Name
  ,                                       ! Interpolate to Timestep
  6,                                      ! Hour 1
  0,                                      ! Minute 1
  0,                                      ! Value Until Time 1
  22,                                     ! Hour 2
  0,                                      ! Minute 2
  1,                                      ! Value Until Time 2
  24,                                     ! Hour 3
  0,                                      ! Minute 3
  0.050000000000000003;                   ! Value Until Time 3

OS:Schedule:Day,
  {3393a682-e262-4bec-b7cf-fd6eec115ebc}, ! Handle
  Office Bldg Occ Winter Design Day 1,    ! Name
  {af9d9c36-2d5f-4871-8dda-ff179c7ff3db}, ! Schedule Type Limits Name
  ,                                       ! Interpolate to Timestep
  24,                                     ! Hour 1
  0,                                      ! Minute 1
  0;                                      ! Value Until Time 1

OS:Schedule:Rule,
  {3ca2483c-714c-4d0d-8b7c-5f4a9c2b67c5}, ! Handle
  Office Misc Occ Rule 1,                 ! Name
  {be0538a4-3720-422e-85be-2e617795d558}, ! Schedule Ruleset Name
  0,                                      ! Rule Order
  {f56ad6ba-e3fe-4664-91d5-6e3a524b6815}, ! Day Schedule Name
  Yes,                                    ! Apply Sunday
  No,                                     ! Apply Monday
  No,                                     ! Apply Tuesday
  No,                                     ! Apply Wednesday
  No,                                     ! Apply Thursday
  No,                                     ! Apply Friday
  No,                                     ! Apply Saturday
  ,                                       ! Apply Holiday
  DateRange,                              ! Date Specification Type
  1,                                      ! Start Month
  1,                                      ! Start Day
  12,                                     ! End Month
  31;                                     ! End Day

OS:Schedule:Day,
  {f56ad6ba-e3fe-4664-91d5-6e3a524b6815}, ! Handle
  Office Bldg Occ Rule 1 Day Schedule 1,  ! Name
  {af9d9c36-2d5f-4871-8dda-ff179c7ff3db}, ! Schedule Type Limits Name
  ,                                       ! Interpolate to Timestep
  24,                                     ! Hour 1
  0,                                      ! Minute 1
  0;                                      ! Value Until Time 1

OS:Schedule:Rule,
  {05c99778-2bec-4bcf-b23a-afcb3628f061}, ! Handle
  Office Misc Occ Rule 2,                 ! Name
  {be0538a4-3720-422e-85be-2e617795d558}, ! Schedule Ruleset Name
  1,                                      ! Rule Order
  {50794c08-f7a3-4592-ab7e-021599b65e8f}, ! Day Schedule Name
  No,                                     ! Apply Sunday
  No,                                     ! Apply Monday
  No,                                     ! Apply Tuesday
  No,                                     ! Apply Wednesday
  No,                                     ! Apply Thursday
  No,                                     ! Apply Friday
  Yes,                                    ! Apply Saturday
  ,                                       ! Apply Holiday
  DateRange,                              ! Date Specification Type
  1,                                      ! Start Month
  1,                                      ! Start Day
  12,                                     ! End Month
  31;                                     ! End Day

OS:Schedule:Day,
  {50794c08-f7a3-4592-ab7e-021599b65e8f}, ! Handle
  Office Bldg Occ Rule 2 Day Schedule 1,  ! Name
  {af9d9c36-2d5f-4871-8dda-ff179c7ff3db}, ! Schedule Type Limits Name
  ,                                       ! Interpolate to Timestep
  24,                                     !- Hour 1
  0,                                      !- Minute 1
  0;                                      !- Value Until Time 1

OS:Schedule:Ruleset,
  {2eaafb36-c8d9-471a-8f30-6e2188bd0fdb}, ! Handle
  Office Activity,                        ! Name
  {65bf6a03-1758-4903-8383-db583a09d8f8}, ! Schedule Type Limits Name
  {3327af75-d065-4569-8f41-90aaaadb46d9}, ! Default Day Schedule Name
  {82481ab0-fa29-4f90-b6c0-269200534d1a}, ! Summer Design Day Schedule Name
  {ce7a9c35-95ca-4940-ae5d-8bb25d884027}; ! Winter Design Day Schedule Name

OS:ScheduleTypeLimits,
  {65bf6a03-1758-4903-8383-db583a09d8f8}, !- Handle
  ActivityLevel,                          !- Name
  0,                                      !- Lower Limit Value
  ,                                       !- Upper Limit Value
  Continuous,                             !- Numeric Type
  ActivityLevel;                          !- Unit Type

OS:Schedule:Day,
  {3327af75-d065-4569-8f41-90aaaadb46d9}, ! Handle
  Office Activity Default Schedule,       ! Name
  {65bf6a03-1758-4903-8383-db583a09d8f8}, ! Schedule Type Limits Name
  ,                                       ! Interpolate to Timestep
  8,                                      !- Hour 1
  0,                                      !- Minute 1
  0,                                      !- Value Until Time 1
  12,                                     !- Hour 2
  0,                                      !- Minute 2
  132,                                    !- Value Until Time 2
  13,                                     !- Hour 3
  0,                                      !- Minute 3
  0,                                      !- Value Until Time 3
  17,                                     !- Hour 4
  0,                                      !- Minute 4
  132,                                    !- Value Until Time 4
  24,                                     !- Hour 5
  0,                                      !- Minute 5
  0;                                      !- Value Until Time 5

OS:Schedule:Day,
  {82481ab0-fa29-4f90-b6c0-269200534d1a}, ! Handle
  Office Activity Summer Design Day,      ! Name
  {65bf6a03-1758-4903-8383-db583a09d8f8}, ! Schedule Type Limits Name
  ,                                       ! Interpolate to Timestep
  8,                                      !- Hour 1
  0,                                      !- Minute 1
  0,                                      !- Value Until Time 1
  12,                                     !- Hour 2
  0,                                      !- Minute 2
  1,                                      !- Value Until Time 2
  13,                                     !- Hour 3
  0,                                      !- Minute 3
  0,                                      !- Value Until Time 3
  17,                                     !- Hour 4
  0,                                      !- Minute 4
  1,                                      !- Value Until Time 4
  24,                                     !- Hour 5
  0,                                      !- Minute 5
  0;                                      !- Value Until Time 5

OS:Schedule:Day,
  {ce7a9c35-95ca-4940-ae5d-8bb25d884027}, ! Handle
  Office Activity Winter Design Day,      ! Name
  {65bf6a03-1758-4903-8383-db583a09d8f8}, ! Schedule Type Limits Name
  ,                                       ! Interpolate to Timestep
  8,                                      !- Hour 1
  0,                                      !- Minute 1
  0,                                      !- Value Until Time 1
  12,                                     !- Hour 2
  0,                                      !- Minute 2
  93.9413833618164,                       !- Value Until Time 2
  13,                                     !- Hour 3
  0,                                      !- Minute 3
  0,                                      !- Value Until Time 3
  17,                                     !- Hour 4
  0,                                      !- Minute 4
  101.190643310547,                       !- Value Until Time 4
  24,                                     !- Hour 5
  0,                                      !- Minute 5
  0;                                      !- Value Until Time 5

OS:SpaceInfiltration:DesignFlowRate,
  {d11f3814-047f-4553-8741-be6dbd4a756d}, !- Handle
  189.1-2009 - Office - BreakRoom - CZ1-3 Infiltration, !- Name
  {d83c9d8c-b4ea-4352-92bc-43a5e8551039}, !- Space or SpaceType Name
  ,                                       !- Schedule Name
  Flow/ExteriorArea,                      !- Design Flow Rate Calculation Method
  ,                                       !- Design Flow Rate {m3/s}
  ,                                       !- Flow per Space Floor Area {m3/s-m2}
  0.00030226,                             !- Flow per Exterior Surface Area {m3/s-m2}
  ,                                       !- Air Changes per Hour {1/hr}
  ,                                       !- Constant Term Coefficient
  ,                                       !- Temperature Term Coefficient
  ,                                       !- Velocity Term Coefficient
  ;                                       !- Velocity Squared Term Coefficient

OS:Schedule:Ruleset,
  {5071fc8f-2a43-420e-b853-89de3fd548e0}, ! Handle
  Office Infil Quarter On,                ! Name
  {af9d9c36-2d5f-4871-8dda-ff179c7ff3db}, ! Schedule Type Limits Name
  {2fb80237-329a-4845-a30d-3df8432f42db}, ! Default Day Schedule Name
  {5d5af512-8749-48a6-8cab-1e94e2186c8a}, ! Summer Design Day Schedule Name
  {2ad01453-6707-4358-a39d-e8f66d6a2d27}; ! Winter Design Day Schedule Name

OS:Schedule:Day,
  {2fb80237-329a-4845-a30d-3df8432f42db}, ! Handle
  Office Infil Quarter On Default Schedule, ! Name
  {af9d9c36-2d5f-4871-8dda-ff179c7ff3db}, ! Schedule Type Limits Name
  ,                                       ! Interpolate to Timestep
  6,                                      !- Hour 1
  0,                                      !- Minute 1
  1,                                      !- Value Until Time 1
  22,                                     !- Hour 2
  0,                                      !- Minute 2
  0.25,                                   !- Value Until Time 2
  24,                                     !- Hour 3
  0,                                      !- Minute 3
  1;                                      !- Value Until Time 3

OS:Schedule:Day,
  {5d5af512-8749-48a6-8cab-1e94e2186c8a}, ! Handle
  Office Infil Quarter On Summer Design Day, ! Name
  {af9d9c36-2d5f-4871-8dda-ff179c7ff3db}, ! Schedule Type Limits Name
  ,                                       ! Interpolate to Timestep
  6,                                      ! Hour 1
  0,                                      ! Minute 1
  1,                                      ! Value Until Time 1
  22,                                     ! Hour 2
  0,                                      ! Minute 2
  0.25,                                   ! Value Until Time 2
  24,                                     ! Hour 3
  0,                                      ! Minute 3
  1;                                      ! Value Until Time 3

OS:Schedule:Day,
  {2ad01453-6707-4358-a39d-e8f66d6a2d27}, ! Handle
  Office Infil Quarter On Winter Design Day, ! Name
  {af9d9c36-2d5f-4871-8dda-ff179c7ff3db}, ! Schedule Type Limits Name
  ,                                       ! Interpolate to Timestep
  6,                                      ! Hour 1
  0,                                      ! Minute 1
  1,                                      ! Value Until Time 1
  18,                                     ! Hour 2
  0,                                      ! Minute 2
  0.25,                                   ! Value Until Time 2
  24,                                     ! Hour 3
  0,                                      ! Minute 3
  1;                                      ! Value Until Time 3

OS:Schedule:Rule,
  {4574f359-1b04-4a98-ab13-df5e80f66af0}, ! Handle
  Office Infil Quarter On Rule 1,         ! Name
  {5071fc8f-2a43-420e-b853-89de3fd548e0}, ! Schedule Ruleset Name
  0,                                      ! Rule Order
  {3790040e-9ea2-4dc8-aa07-8c3be9362217}, ! Day Schedule Name
  Yes,                                    ! Apply Sunday
  No,                                     ! Apply Monday
  No,                                     ! Apply Tuesday
  No,                                     ! Apply Wednesday
  No,                                     ! Apply Thursday
  No,                                     ! Apply Friday
  No,                                     ! Apply Saturday
  ,                                       ! Apply Holiday
  DateRange,                              ! Date Specification Type
  1,                                      ! Start Month
  1,                                      ! Start Day
  12,                                     ! End Month
  31;                                     ! End Day

OS:Schedule:Day,
  {3790040e-9ea2-4dc8-aa07-8c3be9362217}, ! Handle
  Office Infil Quarter On Rule 1 Day Schedule, ! Name
  {af9d9c36-2d5f-4871-8dda-ff179c7ff3db}, ! Schedule Type Limits Name
  ,                                       ! Interpolate to Timestep
  24,                                     ! Hour 1
  0,                                      ! Minute 1
  1;                                      ! Value Until Time 1

OS:Schedule:Rule,
  {dffe30c1-3c56-49c5-a8f7-647f7d37a109}, ! Handle
  Office Infil Quarter On Rule 2,         ! Name
  {5071fc8f-2a43-420e-b853-89de3fd548e0}, ! Schedule Ruleset Name
  1,                                      ! Rule Order
  {f8525cc5-5d39-46fb-83d8-d6d96f5d4e03}, ! Day Schedule Name
  No,                                     ! Apply Sunday
  No,                                     ! Apply Monday
  No,                                     ! Apply Tuesday
  No,                                     ! Apply Wednesday
  No,                                     ! Apply Thursday
  No,                                     ! Apply Friday
  Yes,                                    ! Apply Saturday
  ,                                       ! Apply Holiday
  DateRange,                              ! Date Specification Type
  1,                                      ! Start Month
  1,                                      ! Start Day
  12,                                     ! End Month
  31;                                     ! End Day

OS:Schedule:Day,
  {f8525cc5-5d39-46fb-83d8-d6d96f5d4e03}, ! Handle
  Office Infil Quarter On Rule 2 Day Schedule, ! Name
  {af9d9c36-2d5f-4871-8dda-ff179c7ff3db}, ! Schedule Type Limits Name
  ,                                       ! Interpolate to Timestep
  6,                                      ! Hour 1
  0,                                      ! Minute 1
  1,                                      ! Value Until Time 1
  18,                                     ! Hour 2
  0,                                      ! Minute 2
  0.25,                                   ! Value Until Time 2
  24,                                     ! Hour 3
  0,                                      ! Minute 3
  1;                                      ! Value Until Time 3

OS:ElectricEquipment:Definition,
  {67250caf-92b5-4b98-bf98-90620f2922e7}, !- Handle
  189.1-2009 - Office - BreakRoom - CZ1-3 Electric Equipment Definition, !- Name
  Watts/Area,                             !- Design Level Calculation Method
  ,                                       !- Design Level {W}
  48.0070404585254,                       !- Watts per Space Floor Area {W/m2}
  ;                                       !- Watts per Person {W/person}

OS:ElectricEquipment,
  {077ed202-9856-487a-81f9-2b33f6ef021d}, !- Handle
  189.1-2009 - Office - BreakRoom - CZ1-3 Electric Equipment, !- Name
  {67250caf-92b5-4b98-bf98-90620f2922e7}, !- Electric Equipment Definition Name
  {d83c9d8c-b4ea-4352-92bc-43a5e8551039}; !- Space or SpaceType Name

OS:Schedule:Ruleset,
  {d4102340-9627-4371-b8f6-a3790caa5373}, ! Handle
  Office Bldg Equip,                      ! Name
  {af9d9c36-2d5f-4871-8dda-ff179c7ff3db}, ! Schedule Type Limits Name
  {977dd248-68d1-44ba-89cd-75118b7f5432}, ! Default Day Schedule Name
  {c29d5462-6e30-488d-a879-41ed4219dda7}, ! Summer Design Day Schedule Name
  {d3bffa7b-808a-4d48-99c4-616283b390aa}; ! Winter Design Day Schedule Name

OS:Schedule:Day,
  {977dd248-68d1-44ba-89cd-75118b7f5432}, ! Handle
  Office Bldg Equip Default Schedule,     ! Name
  {af9d9c36-2d5f-4871-8dda-ff179c7ff3db}, ! Schedule Type Limits Name
  ,                                       ! Interpolate to Timestep
  8,                                      !- Hour 1
  0,                                      !- Minute 1
  0.4,                                    !- Value Until Time 1
  12,                                     !- Hour 2
  0,                                      !- Minute 2
  0.9,                                    !- Value Until Time 2
  13,                                     !- Hour 3
  0,                                      !- Minute 3
  0.8,                                    !- Value Until Time 3
  17,                                     !- Hour 4
  0,                                      !- Minute 4
  0.9,                                    !- Value Until Time 4
  18,                                     !- Hour 5
  0,                                      !- Minute 5
  0.8,                                    !- Value Until Time 5
  20,                                     !- Hour 6
  0,                                      !- Minute 6
  0.6,                                    !- Value Until Time 6
  22,                                     !- Hour 7
  0,                                      !- Minute 7
  0.5,                                    !- Value Until Time 7
  24,                                     !- Hour 8
  0,                                      !- Minute 8
  0.4;                                    !- Value Until Time 8

OS:Schedule:Day,
  {c29d5462-6e30-488d-a879-41ed4219dda7}, ! Handle
  Office Bldg Equip Summer Design Day,    ! Name
  {af9d9c36-2d5f-4871-8dda-ff179c7ff3db}, ! Schedule Type Limits Name
  ,                                       ! Interpolate to Timestep
  24,                                     ! Hour 1