
OS:Version,
  {43d3c206-4123-4127-93ff-e374bb5ed911}, !- Handle
  1.11.0;                                 !- Version Identifier

OS:ClimateZones,
  {8a3ac41c-57d4-48e4-a48e-1f232e262211}, !- Handle
  ,                                       !- Active Institution
  ,                                       !- Active Year
  ASHRAE,                                 !- Climate Zone Institution Name 1
  ANSI/ASHRAE Standard 169,               !- Climate Zone Document Name 1
  2006,                                   !- Climate Zone Document Year 1
  3B,                                     !- Climate Zone Value 1
  CEC,                                    !- Climate Zone Institution Name 2
  California Climate Zone Descriptions,   !- Climate Zone Document Name 2
  1995,                                   !- Climate Zone Document Year 2
  7;                                      !- Climate Zone Value 2

OS:LifeCycleCost:Parameters,
  {1d4d0f18-e6dd-45c8-896c-f4f2a89e6ae5}, !- Handle
  FEMP,                                   !- Analysis Type
  ,                                       !- Discounting Convention
  ,                                       !- Inflation Approach
  ,                                       !- Real Discount Rate
  ,                                       !- Nominal Discount Rate
  ,                                       !- Inflation
  ,                                       !- Base Date Month
  ,                                       !- Base Date Year
  ,                                       !- Service Date Month
  ,                                       !- Service Date Year
  ,                                       !- Length of Study Period in Years
  ,                                       !- Tax Rate
  ,                                       !- Depreciation Method
  Yes;                                    !- Use NIST Fuel Escalation Rates

OS:YearDescription,
  {c1349a5a-d7e1-4ed9-8e5b-24480649c25c}, !- Handle
  ,                                       !- Calendar Year
  Sunday,                                 !- Day of Week for Start Day
  ;                                       !- Is Leap Year

OS:RadianceParameters,
  {8297fd56-36de-4b79-a182-b7636f4ae3e3}, !- Handle
  1,                                      !- Accumulated Rays per Record
  0,                                      !- Direct Threshold
  1,                                      !- Direct Certainty
  1,                                      !- Direct Jitter
  1,                                      !- Direct Pretest
  6,                                      !- Ambient Bounces VMX
  2,                                      !- Ambient Bounces DMX
  4050,                                   !- Ambient Divisions VMX
  512,                                    !- Ambient Divisions DMX
  256,                                    !- Ambient Supersamples
  0.001,                                  !- Limit Weight VMX
  0.001,                                  !- Limit Weight DMX
  500,                                    !- Klems Sampling Density
  146;                                    !- Sky Discretization Resolution

OS:SimulationControl,
  {7c57f4fc-548f-44e7-a438-1feca6a75629}; !- Handle

OS:Sizing:Parameters,
  {ee365675-827e-489e-9a24-0f596988dec4}, !- Handle
  1.25,                                   !- Heating Sizing Factor
  1.15;                                   !- Cooling Sizing Factor

OS:ProgramControl,
  {8a7b938e-cdcb-40af-82b1-79c267c36bae}; !- Handle

OS:Timestep,
  {31824a36-2f0f-4919-a534-cdb00e20d2e0}, !- Handle
  6;                                      !- Number of Timesteps per Hour

OS:OutputControl:ReportingTolerances,
  {275082a5-6cfd-4756-972e-8810ab253e29}; !- Handle

OS:ConvergenceLimits,
  {fcca1605-8471-4f2f-a485-a59582311771}; !- Handle

OS:ShadowCalculation,
  {d875de65-75c7-4d9d-883e-07bd79421b67}, !- Handle
  7,                                      !- Calculation Frequency
  15000;                                  !- Maximum Figures in Shadow Overlap Calculations

OS:SurfaceConvectionAlgorithm:Inside,
  {5add9a33-b760-4e82-a0f9-3ae0e369b9c4}, !- Handle
  TARP;                                   !- Algorithm

OS:SurfaceConvectionAlgorithm:Outside,
  {0257be16-14fc-418e-bc73-178201ccc4ec}, !- Handle
  DOE-2;                                  !- Algorithm

OS:HeatBalanceAlgorithm,
  {5a22c4c4-a6a6-4769-b0a8-f79498f98a6d}, !- Handle
  ConductionTransferFunction,             !- Algorithm
  200;                                    !- Surface Temperature Upper Limit {C}

OS:ZoneAirHeatBalanceAlgorithm,
  {24c912f8-6f7f-4792-8ea0-a8d47b3c41a1}, !- Handle
  AnalyticalSolution;                     !- Algorithm

OS:ZoneAirContaminantBalance,
  {07e7d420-4b9b-4760-8a70-01b36aa6074f}; !- Handle

OS:ZoneCapacitanceMultiplier:ResearchSpecial,
  {91056672-db13-4057-9cb7-7ac44d24bfc5}, !- Handle
  ,                                       !- Temperature Capacity Multiplier
  ,                                       !- Humidity Capacity Multiplier
  ;                                       !- Carbon Dioxide Capacity Multiplier

OS:RunPeriod,
  {17c33f47-c9b9-463a-84bc-12596f349148}, !- Handle
  Run Period 1,                           !- Name
  1,                                      !- Begin Month
  1,                                      !- Begin Day of Month
  12,                                     !- End Month
  31,                                     !- End Day of Month
  ,                                       !- Use Weather File Holidays and Special Days
  ,                                       !- Use Weather File Daylight Saving Period
  ,                                       !- Apply Weekend Holiday Rule
  ,                                       !- Use Weather File Rain Indicators
  ,                                       !- Use Weather File Snow Indicators
  ;                                       !- Number of Times Runperiod to be Repeated

OS:Building,
  {e0ce3521-4e53-4eca-8017-2f1c8dec2b50}, !- Handle
  Building 1,                             !- Name
  ,                                       !- Building Sector Type
  -0,                                     !- North Axis {deg}
  ,                                       !- Nominal Floor to Floor Height {m}
  {04c63922-0875-4a00-9b80-136cea61fedb}, !- Space Type Name
  {52080494-c296-4ec4-9f9c-1380fbeea581}, !- Default Construction Set Name
  ,                                       !- Default Schedule Set Name
  ,                                       !- Standards Number of Stories
  ,                                       !- Standards Number of Above Ground Stories
  ,                                       !- Standards Building Type
  ,                                       !- Standards Number of Living Units
  ,                                       !- Relocatable
  ;                                       !- Nominal Floor to Ceiling Height {m}

OS:Facility,
  {b6e6be84-f909-42a5-9deb-ef70c0296721}; !- Handle

OS:Site,
  {f38b0e3c-04e1-4822-940e-9b46c436222c}, !- Handle
  SANTIAGO,                               !- Name
  -33.38,                                 !- Latitude {deg}
  -70.78,                                 !- Longitude {deg}
  -4,                                     !- Time Zone {hr}
  476,                                    !- Elevation {m}
  ;                                       !- Terrain

OS:SpaceType,
  {470a8e4f-cb4b-4ba3-ad7f-2690dec9cf25}, !- Handle
  189.1-2009 - Office - BreakRoom - CZ4-8, !- Name
  ,                                       !- Default Construction Set Name
  {7c1de473-9a39-485a-a421-fa8f3e9349cd}, !- Default Schedule Set Name
  {d578c1b8-ed2d-4a57-aafe-7a0973ae1941}, !- Group Rendering Name
  {f503a359-3f0d-4f4f-940d-23d0dd3a8847}, !- Design Specification Outdoor Air Object Name
  Office,                                 !- Standards Building Type
  BreakRoom;                              !- Standards Space Type

OS:Rendering:Color,
  {d578c1b8-ed2d-4a57-aafe-7a0973ae1941}, !- Handle
  Rendering Color 1,                      !- Name
  230,                                    !- Rendering Red Value
  157,                                    !- Rendering Green Value
  120;                                    !- Rendering Blue Value

OS:DefaultScheduleSet,
  {7c1de473-9a39-485a-a421-fa8f3e9349cd}, !- Handle
  189.1-2009 - Office - BreakRoom - CZ4-8 Schedule Set, !- Name
  ,                                       !- Hours of Operation Schedule Name
  {c4a134cb-d012-4da2-9558-6cd29bcb4c7a}, !- Number of People Schedule Name
  {42bf2c5e-081f-432d-a86f-e0dae9aa7fd5}, !- People Activity Level Schedule Name
  {5a045297-10ad-4389-a7a6-03f28870e70e}, !- Lighting Schedule Name
  {a1c84381-aca1-40a1-85e3-d6a009f6e7c6}, !- Electric Equipment Schedule Name
  ,                                       !- Gas Equipment Schedule Name
  ,                                       !- Hot Water Equipment Schedule Name
  {9a2982de-ef65-49ec-ac26-245f32640292}, !- Infiltration Schedule Name
  ,                                       !- Steam Equipment Schedule Name
  ;                                       !- Other Equipment Schedule Name

OS:Lights:Definition,
  {b7644237-3db7-41bf-a874-31e491826d32}, !- Handle
  189.1-2009 - Office - BreakRoom - CZ4-8 Lights Definition, !- Name
  Watts/Area,                             !- Design Level Calculation Method
  ,                                       !- Lighting Level {W}
  11.6250232500465,                       !- Watts per Space Floor Area {W/m2}
  ;                                       !- Watts per Person {W/person}

OS:Lights,
  {e25e765b-3455-4e6a-b212-e3c78f070903}, !- Handle
  189.1-2009 - Office - BreakRoom - CZ4-8 Lights, !- Name
  {b7644237-3db7-41bf-a874-31e491826d32}, !- Lights Definition Name
  {470a8e4f-cb4b-4ba3-ad7f-2690dec9cf25}; !- Space or SpaceType Name

OS:Schedule:Ruleset,
  {5a045297-10ad-4389-a7a6-03f28870e70e}, ! Handle
  Office Bldg Light,                      ! Name
  {02231aa0-b389-40a9-9167-66c24445c00a}, ! Schedule Type Limits Name
  {b5e40c1c-c573-4bb6-abc5-8940510f8a7d}, ! Default Day Schedule Name
  {2c8e7733-ed86-4094-8b28-543ed37e91ba}, ! Summer Design Day Schedule Name
  {395fe0ac-8327-47dc-92b7-8c8c17c733ec}; ! Winter Design Day Schedule Name

OS:ScheduleTypeLimits,
  {02231aa0-b389-40a9-9167-66c24445c00a}, ! Handle
  Fraction,                               ! Name
  0,                                      ! Lower Limit Value
  1,                                      ! Upper Limit Value
  CONTINUOUS;                             ! Numeric Type

OS:Schedule:Day,
  {b5e40c1c-c573-4bb6-abc5-8940510f8a7d}, ! Handle
  Office Bldg Light Default Schedule,     ! Name
  {02231aa0-b389-40a9-9167-66c24445c00a}, ! Schedule Type Limits Name
  ,                                       ! Interpolate to Timestep
  5,                                      !- Hour 1
  0,                                      !- Minute 1
  0.05,                                   !- Value Until Time 1
  7,                                      !- Hour 2
  0,                                      !- Minute 2
  0.1,                                    !- Value Until Time 2
  8,                                      !- Hour 3
  0,                                      !- Minute 3
  0.3,                                    !- Value Until Time 3
  17,                                     !- Hour 4
  0,                                      !- Minute 4
  0.9,                                    !- Value Until Time 4
  18,                                     !- Hour 5
  0,                                      !- Minute 5
  0.7,                                    !- Value Until Time 5
  20,                                     !- Hour 6
  0,                                      !- Minute 6
  0.5,                                    !- Value Until Time 6
  22,                                     !- Hour 7
  0,                                      !- Minute 7
  0.3,                                    !- Value Until Time 7
  23,                                     !- Hour 8
  0,                                      !- Minute 8
  0.1,                                    !- Value Until Time 8
  24,                                     !- Hour 9
  0,                                      !- Minute 9
  0.05;                                   !- Value Until Time 9

OS:Schedule:Day,
  {2c8e7733-ed86-4094-8b28-543ed37e91ba}, ! Handle
  Office Bldg Light Summer Design Day,    ! Name
  {02231aa0-b389-40a9-9167-66c24445c00a}, ! Schedule Type Limits Name
  ,                                       ! Interpolate to Timestep
  24,                                     ! Hour 1
  0,                                      ! Minute 1
  1;                                      ! Value Until Time 1

OS:Schedule:Day,
  {395fe0ac-8327-47dc-92b7-8c8c17c733ec}, ! Handle
  Office Bldg Light Winter Design Day,    ! Name
  {02231aa0-b389-40a9-9167-66c24445c00a}, ! Schedule Type Limits Name
  ,                                       ! Interpolate to Timestep
  24,                                     ! Hour 1
  0,                                      ! Minute 1
  0;                                      ! Value Until Time 1

OS:Schedule:Rule,
  {2416249a-537e-4710-b49a-908ce820953a}, ! Handle
  Office Bldg Light Rule 1,               ! Name
  {5a045297-10ad-4389-a7a6-03f28870e70e}, ! Schedule Ruleset Name
  0,                                      ! Rule Order
  {c2dac9c1-790a-498f-a636-9b700e110637}, ! Day Schedule Name
  Yes,                                    ! Apply Sunday
  No,                                     ! Apply Monday
  No,                                     ! Apply Tuesday
  No,                                     ! Apply Wednesday
  No,                                     ! Apply Thursday
  No,                                     ! Apply Friday
  No,                                     ! Apply Saturday
  ,                                       ! Apply Holiday
  DateRange,                              ! Date Specification Type
  1,                                      ! Start Month
  1,                                      ! Start Day
  12,                                     ! End Month
  31;                                     ! End Day

OS:Schedule:Day,
  {c2dac9c1-790a-498f-a636-9b700e110637}, ! Handle
  Office Bldg Light Rule 1 Day Schedule,  ! Name
  {02231aa0-b389-40a9-9167-66c24445c00a}, ! Schedule Type Limits Name
  ,                                       ! Interpolate to Timestep
  24,                                     ! Hour 1
  0,                                      ! Minute 1
  0.050000000000000003;                   ! Value Until Time 1

OS:Schedule:Rule,
  {cc881f38-8e2b-4315-9860-bbd4f61e54ef}, ! Handle
  Office Bldg Light Rule 2,               ! Name
  {5a045297-10ad-4389-a7a6-03f28870e70e}, ! Schedule Ruleset Name
  1,                                      ! Rule Order
  {5f17acff-2c66-4968-9ba4-262669ccdfe2}, ! Day Schedule Name
  No,                                     ! Apply Sunday
  No,                                     ! Apply Monday
  No,                                     ! Apply Tuesday
  No,                                     ! Apply Wednesday
  No,                                     ! Apply Thursday
  No,                                     ! Apply Friday
  Yes,                                    ! Apply Saturday
  ,                                       ! Apply Holiday
  DateRange,                              ! Date Specification Type
  1,                                      ! Start Month
  1,                                      ! Start Day
  12,                                     ! End Month
  31;                                     ! End Day

OS:Schedule:Day,
  {5f17acff-2c66-4968-9ba4-262669ccdfe2}, ! Handle
  Office Bldg Light Rule 2 Day Schedule,  ! Name
  {02231aa0-b389-40a9-9167-66c24445c00a}, ! Schedule Type Limits Name
  ,                                       ! Interpolate to Timestep
  6,                                      ! Hour 1
  0,                                      ! Minute 1
  0.050000000000000003,                   ! Value Until Time 1
  8,                                      ! Hour 2
  0,                                      ! Minute 2
  0.10000000000000001,                    ! Value Until Time 2
  14,                                     ! Hour 3
  0,                                      ! Minute 3
  0.5,                                    ! Value Until Time 3
  17,                                     ! Hour 4
  0,                                      ! Minute 4
  0.14999999999999999,                    ! Value Until Time 4
  24,                                     ! Hour 5
  0,                                      ! Minute 5
  0.050000000000000003;                   ! Value Until Time 5

OS:DesignSpecification:OutdoorAir,
  {f503a359-3f0d-4f4f-940d-23d0dd3a8847}, !- Handle
  189.1-2009 - Office - BreakRoom - CZ4-8 Ventilation, !- Name
  Sum,                                    !- Outdoor Air Method
  0.007079211648,                         !- Outdoor Air Flow per Person {m3/s-person}
  ,                                       !- Outdoor Air Flow per Floor Area {m3/s-m2}
  ,                                       !- Outdoor Air Flow Rate {m3/s}
  ,                                       !- Outdoor Air Flow Air Changes per Hour {1/hr}
  ;                                       !- Outdoor Air Flow Rate Fraction Schedule Name

OS:People:Definition,
  {0530959d-c27b-4a6d-aa37-0efc1eb9a66f}, !- Handle
  189.1-2009 - Office - BreakRoom - CZ4-8 People Definition, !- Name
  People/Area,                            !- Number of People Calculation Method
  ,                                       !- Number of People {people}
  0.538195520835486,                      !- People per Space Floor Area {person/m2}
  ,                                       !- Space Floor Area per Person {m2/person}
  0.3;                                    !- Fraction Radiant

OS:People,
  {4d4aa850-8b05-4d18-810f-c467c1de2160}, !- Handle
  189.1-2009 - Office - BreakRoom - CZ4-8 People, !- Name
  {0530959d-c27b-4a6d-aa37-0efc1eb9a66f}, !- People Definition Name
  {470a8e4f-cb4b-4ba3-ad7f-2690dec9cf25}; !- Space or SpaceType Name

OS:Schedule:Ruleset,
  {c4a134cb-d012-4da2-9558-6cd29bcb4c7a}, ! Handle
  Office Misc Occ,                        ! Name
  {02231aa0-b389-40a9-9167-66c24445c00a}, ! Schedule Type Limits Name
  {f074882e-d83f-460b-844e-60d15c9e47d2}, ! Default Day Schedule Name
  {b311b75a-fab1-4303-ab36-55dc3e92d1c0}, ! Summer Design Day Schedule Name
  {d0f93ee0-f8a6-4b35-af23-57628a02f75f}; ! Winter Design Day Schedule Name

OS:Schedule:Day,
  {f074882e-d83f-460b-844e-60d15c9e47d2}, ! Handle
  Office Bldg Occ Default Schedule 1,     ! Name
  {02231aa0-b389-40a9-9167-66c24445c00a}, ! Schedule Type Limits Name
  ,                                       ! Interpolate to Timestep
  6,                                      !- Hour 1
  0,                                      !- Minute 1
  0,                                      !- Value Until Time 1
  7,                                      !- Hour 2
  0,                                      !- Minute 2
  0.100000001490116,                      !- Value Until Time 2
  8,                                      !- Hour 3
  0,                                      !- Minute 3
  0.200000002980232,                      !- Value Until Time 3
  20,                                     !- Hour 4
  0,                                      !- Minute 4
  0.400000005960464,                      !- Value Until Time 4
  22,                                     !- Hour 5
  0,                                      !- Minute 5
  0.100000001490116,                      !- Value Until Time 5
  24,                                     !- Hour 6
  0,                                      !- Minute 6
  0.0500000007450581;                     !- Value Until Time 6

OS:Schedule:Day,
  {b311b75a-fab1-4303-ab36-55dc3e92d1c0}, ! Handle
  Office Bldg Occ Summer Design Day 1,    ! Name
  {02231aa0-b389-40a9-9167-66c24445c00a}, ! Schedule Type Limits Name
  ,                                       ! Interpolate to Timestep
  6,                                      ! Hour 1
  0,                                      ! Minute 1
  0,                                      ! Value Until Time 1
  22,                                     ! Hour 2
  0,                                      ! Minute 2
  1,                                      ! Value Until Time 2
  24,                                     ! Hour 3
  0,                                      ! Minute 3
  0.050000000000000003;                   ! Value Until Time 3

OS:Schedule:Day,
  {d0f93ee0-f8a6-4b35-af23-57628a02f75f}, ! Handle
  Office Bldg Occ Winter Design Day 1,    ! Name
  {02231aa0-b389-40a9-9167-66c24445c00a}, ! Schedule Type Limits Name
  ,                                       ! Interpolate to Timestep
  24,                                     ! Hour 1
  0,                                      ! Minute 1
  0;                                      ! Value Until Time 1

OS:Schedule:Rule,
  {4e7635fa-3aa9-4301-94f9-3f320fc27e11}, ! Handle
  Office Misc Occ Rule 1,                 ! Name
  {c4a134cb-d012-4da2-9558-6cd29bcb4c7a}, ! Schedule Ruleset Name
  0,                                      ! Rule Order
  {6372689e-e95f-4e1c-9d50-1036ba3fcae9}, ! Day Schedule Name
  Yes,                                    ! Apply Sunday
  No,                                     ! Apply Monday
  No,                                     ! Apply Tuesday
  No,                                     ! Apply Wednesday
  No,                                     ! Apply Thursday
  No,                                     ! Apply Friday
  No,                                     ! Apply Saturday
  ,                                       ! Apply Holiday
  DateRange,                              ! Date Specification Type
  1,                                      ! Start Month
  1,                                      ! Start Day
  12,                                     ! End Month
  31;                                     ! End Day

OS:Schedule:Day,
  {6372689e-e95f-4e1c-9d50-1036ba3fcae9}, ! Handle
  Office Bldg Occ Rule 1 Day Schedule 1,  ! Name
  {02231aa0-b389-40a9-9167-66c24445c00a}, ! Schedule Type Limits Name
  ,                                       ! Interpolate to Timestep
  24,                                     ! Hour 1
  0,                                      ! Minute 1
  0;                                      ! Value Until Time 1

OS:Schedule:Rule,
  {fff47933-0ba2-43df-a7f4-a0716f6acf49}, ! Handle
  Office Misc Occ Rule 2,                 ! Name
  {c4a134cb-d012-4da2-9558-6cd29bcb4c7a}, ! Schedule Ruleset Name
  1,                                      ! Rule Order
  {5f2bf036-9bd2-4257-9298-c3ee026e8bce}, ! Day Schedule Name
  No,                                     ! Apply Sunday
  No,                                     ! Apply Monday
  No,                                     ! Apply Tuesday
  No,                                     ! Apply Wednesday
  No,                                     ! Apply Thursday
  No,                                     ! Apply Friday
  Yes,                                    ! Apply Saturday
  ,                                       ! Apply Holiday
  DateRange,                              ! Date Specification Type
  1,                                      ! Start Month
  1,                                      ! Start Day
  12,                                     ! End Month
  31;                                     ! End Day

OS:Schedule:Day,
  {5f2bf036-9bd2-4257-9298-c3ee026e8bce}, ! Handle
  Office Bldg Occ Rule 2 Day Schedule 1,  ! Name
  {02231aa0-b389-40a9-9167-66c24445c00a}, ! Schedule Type Limits Name
  ,                                       ! Interpolate to Timestep
  6,                                      !- Hour 1
  0,                                      !- Minute 1
  0,                                      !- Value Until Time 1
  8,                                      !- Hour 2
  0,                                      !- Minute 2
  0.100000001490116,                      !- Value Until Time 2
  14,                                     !- Hour 3
  0,                                      !- Minute 3
  0.25,                                   !- Value Until Time 3
  17,                                     !- Hour 4
  0,                                      !- Minute 4
  0.100000001490116,                      !- Value Until Time 4
  24,                                     !- Hour 5
  0,                                      !- Minute 5
  0;                                      !- Value Until Time 5

OS:Schedule:Ruleset,
  {42bf2c5e-081f-432d-a86f-e0dae9aa7fd5}, ! Handle
  Office Activity,                        ! Name
  {574b39e0-f68e-43cb-b887-b9efad834b1a}, ! Schedule Type Limits Name
  {ea581091-d17d-4541-8a3f-6aa79beccfb0}, ! Default Day Schedule Name
  {7a75ef18-8fe3-4db4-9893-a3256fb34da8}, ! Summer Design Day Schedule Name
  {e850a118-e71f-4e80-8d0a-748577259612}; ! Winter Design Day Schedule Name

OS:ScheduleTypeLimits,
  {574b39e0-f68e-43cb-b887-b9efad834b1a}, !- Handle
  ActivityLevel,                          !- Name
  0,                                      !- Lower Limit Value
  ,                                       !- Upper Limit Value
  Continuous,                             !- Numeric Type
  ActivityLevel;                          !- Unit Type

OS:Schedule:Day,
  {ea581091-d17d-4541-8a3f-6aa79beccfb0}, ! Handle
  Office Activity Default Schedule,       ! Name
  {574b39e0-f68e-43cb-b887-b9efad834b1a}, ! Schedule Type Limits Name
  ,                                       ! Interpolate to Timestep
  24,                                     !- Hour 1
  0,                                      !- Minute 1
  132;                                    !- Value Until Time 1

OS:Schedule:Day,
  {7a75ef18-8fe3-4db4-9893-a3256fb34da8}, ! Handle
  Office Activity Summer Design Day,      ! Name
  {574b39e0-f68e-43cb-b887-b9efad834b1a}, ! Schedule Type Limits Name
  ,                                       ! Interpolate to Timestep
  24,                                     !- Hour 1
  0,                                      !- Minute 1
  132;                                    !- Value Until Time 1

OS:Schedule:Day,
  {e850a118-e71f-4e80-8d0a-748577259612}, ! Handle
  Office Activity Winter Design Day,      ! Name
  {574b39e0-f68e-43cb-b887-b9efad834b1a}, ! Schedule Type Limits Name
  ,                                       ! Interpolate to Timestep
  24,                                     !- Hour 1
  0,                                      !- Minute 1
  132;                                    !- Value Until Time 1

OS:SpaceInfiltration:DesignFlowRate,
  {e66bbd47-a724-4d43-8dab-501dccfcb35c}, !- Handle
  189.1-2009 - Office - BreakRoom - CZ4-8 Infiltration, !- Name
  {470a8e4f-cb4b-4ba3-ad7f-2690dec9cf25}, !- Space or SpaceType Name
  ,                                       !- Schedule Name
  Flow/ExteriorArea,                      !- Design Flow Rate Calculation Method
  ,                                       !- Design Flow Rate {m3/s}
  ,                                       !- Flow per Space Floor Area {m3/s-m2}
  0.000226568,                            !- Flow per Exterior Surface Area {m3/s-m2}
  ,                                       !- Air Changes per Hour {1/hr}
  ,                                       !- Constant Term Coefficient
  ,                                       !- Temperature Term Coefficient
  ,                                       !- Velocity Term Coefficient
  ;                                       !- Velocity Squared Term Coefficient

OS:Schedule:Ruleset,
  {9a2982de-ef65-49ec-ac26-245f32640292}, ! Handle
  Office Infil Quarter On,                ! Name
  {02231aa0-b389-40a9-9167-66c24445c00a}, ! Schedule Type Limits Name
  {6063b04f-176b-4503-bea4-7c44dbd04720}, ! Default Day Schedule Name
  {21a48774-e862-4920-bd6b-079be240af3b}, ! Summer Design Day Schedule Name
  {161848c7-0b1a-48e5-85f1-17a02d1d3054}; ! Winter Design Day Schedule Name

OS:Schedule:Day,
  {6063b04f-176b-4503-bea4-7c44dbd04720}, ! Handle
  Office Infil Quarter On Default Schedule, ! Name
  {02231aa0-b389-40a9-9167-66c24445c00a}, ! Schedule Type Limits Name
  ,                                       ! Interpolate to Timestep
  6,                                      !- Hour 1
  0,                                      !- Minute 1
  1,                                      !- Value Until Time 1
  22,                                     !- Hour 2
  0,                                      !- Minute 2
  0.25,                                   !- Value Until Time 2
  24,                                     !- Hour 3
  0,                                      !- Minute 3
  1;                                      !- Value Until Time 3

OS:Schedule:Day,
  {21a48774-e862-4920-bd6b-079be240af3b}, ! Handle
  Office Infil Quarter On Summer Design Day, ! Name
  {02231aa0-b389-40a9-9167-66c24445c00a}, ! Schedule Type Limits Name
  ,                                       ! Interpolate to Timestep
  6,                                      ! Hour 1
  0,                                      ! Minute 1
  1,                                      ! Value Until Time 1
  22,                                     ! Hour 2