
OS:Version,
  {62d44a0e-7516-4c86-824d-008766c25f8d}, !- Handle
  1.11.0;                                 !- Version Identifier

OS:ClimateZones,
  {8a3ac41c-57d4-48e4-a48e-1f232e262211}, !- Handle
  ,                                       !- Active Institution
  ,                                       !- Active Year
  ASHRAE,                                 !- Climate Zone Institution Name 1
  ANSI/ASHRAE Standard 169,               !- Climate Zone Document Name 1
  2006,                                   !- Climate Zone Document Year 1
  ,                                       !- Climate Zone Value 1
  CEC,                                    !- Climate Zone Institution Name 2
  California Climate Zone Descriptions,   !- Climate Zone Document Name 2
  1995,                                   !- Climate Zone Document Year 2
  ;                                       !- Climate Zone Value 2

OS:LifeCycleCost:Parameters,
  {1d4d0f18-e6dd-45c8-896c-f4f2a89e6ae5}, !- Handle
  FEMP,                                   !- Analysis Type
  ,                                       !- Discounting Convention
  ,                                       !- Inflation Approach
  ,                                       !- Real Discount Rate
  ,                                       !- Nominal Discount Rate
  ,                                       !- Inflation
  ,                                       !- Base Date Month
  ,                                       !- Base Date Year
  ,                                       !- Service Date Month
  ,                                       !- Service Date Year
  ,                                       !- Length of Study Period in Years
  ,                                       !- Tax Rate
  ,                                       !- Depreciation Method
  Yes;                                    !- Use NIST Fuel Escalation Rates

OS:YearDescription,
  {c1349a5a-d7e1-4ed9-8e5b-24480649c25c}, !- Handle
  ,                                       !- Calendar Year
  Sunday,                                 !- Day of Week for Start Day
  ;                                       !- Is Leap Year

OS:RadianceParameters,
  {8297fd56-36de-4b79-a182-b7636f4ae3e3}, !- Handle
  1,                                      !- Accumulated Rays per Record
  0,                                      !- Direct Threshold
  1,                                      !- Direct Certainty
  1,                                      !- Direct Jitter
  1,                                      !- Direct Pretest
  6,                                      !- Ambient Bounces VMX
  2,                                      !- Ambient Bounces DMX
  4050,                                   !- Ambient Divisions VMX
  512,                                    !- Ambient Divisions DMX
  256,                                    !- Ambient Supersamples
  0.001,                                  !- Limit Weight VMX
  0.001,                                  !- Limit Weight DMX
  500,                                    !- Klems Sampling Density
  146;                                    !- Sky Discretization Resolution

OS:SimulationControl,
  {7c57f4fc-548f-44e7-a438-1feca6a75629}; !- Handle

OS:Sizing:Parameters,
  {ee365675-827e-489e-9a24-0f596988dec4}, !- Handle
  1.25,                                   !- Heating Sizing Factor
  1.15;                                   !- Cooling Sizing Factor

OS:ProgramControl,
  {8a7b938e-cdcb-40af-82b1-79c267c36bae}; !- Handle

OS:Timestep,
  {31824a36-2f0f-4919-a534-cdb00e20d2e0}, !- Handle
  6;                                      !- Number of Timesteps per Hour

OS:OutputControl:ReportingTolerances,
  {275082a5-6cfd-4756-972e-8810ab253e29}; !- Handle

OS:ConvergenceLimits,
  {fcca1605-8471-4f2f-a485-a59582311771}; !- Handle

OS:ShadowCalculation,
  {d875de65-75c7-4d9d-883e-07bd79421b67}, !- Handle
  7,                                      !- Calculation Frequency
  15000;                                  !- Maximum Figures in Shadow Overlap Calculations

OS:SurfaceConvectionAlgorithm:Inside,
  {5add9a33-b760-4e82-a0f9-3ae0e369b9c4}, !- Handle
  TARP;                                   !- Algorithm

OS:SurfaceConvectionAlgorithm:Outside,
  {0257be16-14fc-418e-bc73-178201ccc4ec}, !- Handle
  DOE-2;                                  !- Algorithm

OS:HeatBalanceAlgorithm,
  {5a22c4c4-a6a6-4769-b0a8-f79498f98a6d}, !- Handle
  ConductionTransferFunction,             !- Algorithm
  200;                                    !- Surface Temperature Upper Limit {C}

OS:ZoneAirHeatBalanceAlgorithm,
  {24c912f8-6f7f-4792-8ea0-a8d47b3c41a1}, !- Handle
  AnalyticalSolution;                     !- Algorithm

OS:ZoneAirContaminantBalance,
  {07e7d420-4b9b-4760-8a70-01b36aa6074f}; !- Handle

OS:ZoneCapacitanceMultiplier:ResearchSpecial,
  {91056672-db13-4057-9cb7-7ac44d24bfc5}, !- Handle
  ,                                       !- Temperature Capacity Multiplier
  ,                                       !- Humidity Capacity Multiplier
  ;                                       !- Carbon Dioxide Capacity Multiplier

OS:RunPeriod,
  {17c33f47-c9b9-463a-84bc-12596f349148}, !- Handle
  Run Period 1,                           !- Name
  1,                                      !- Begin Month
  1,                                      !- Begin Day of Month
  12,                                     !- End Month
  31,                                     !- End Day of Month
  ,                                       !- Use Weather File Holidays and Special Days
  ,                                       !- Use Weather File Daylight Saving Period
  ,                                       !- Apply Weekend Holiday Rule
  ,                                       !- Use Weather File Rain Indicators
  ,                                       !- Use Weather File Snow Indicators
  ;                                       !- Number of Times Runperiod to be Repeated

OS:Building,
  {e0ce3521-4e53-4eca-8017-2f1c8dec2b50}, !- Handle
  Building 1,                             !- Name
  ,                                       !- Building Sector Type
  ,                                       !- North Axis {deg}
  ,                                       !- Nominal Floor to Floor Height {m}
  {49d2b712-fc87-4652-b85f-fecdb72ff8c5}, !- Space Type Name
  {ae4942d4-e767-467f-9c7e-a1d00f88e892}, !- Default Construction Set Name
  ,                                       !- Default Schedule Set Name
  ,                                       !- Standards Number of Stories
  ,                                       !- Standards Number of Above Ground Stories
  ,                                       !- Standards Building Type
  ,                                       !- Standards Number of Living Units
  ,                                       !- Relocatable
  ;                                       !- Nominal Floor to Ceiling Height {m}

OS:Facility,
  {b6e6be84-f909-42a5-9deb-ef70c0296721}; !- Handle

OS:Site,
  {f38b0e3c-04e1-4822-940e-9b46c436222c}, !- Handle
  NEW DELHI,                              !- Name
  28.58,                                  !- Latitude {deg}
  77.2,                                   !- Longitude {deg}
  5.5,                                    !- Time Zone {hr}
  216,                                    !- Elevation {m}
  ;                                       !- Terrain

OS:SpaceType,
  {6373ad1b-dea8-4b72-a5d2-7255693a7d1a}, !- Handle
  189.1-2009 - Office - BreakRoom - CZ4-8, !- Name
  ,                                       !- Default Construction Set Name
  {ac690059-e988-4b4f-b619-85a8e7432222}, !- Default Schedule Set Name
  {88e0073f-6dbe-4df3-8a90-d7ef224c0d60}, !- Group Rendering Name
  {5d369b2a-0c62-4082-9da5-b19f759ee34c}, !- Design Specification Outdoor Air Object Name
  Office,                                 !- Standards Building Type
  BreakRoom;                              !- Standards Space Type

OS:Rendering:Color,
  {88e0073f-6dbe-4df3-8a90-d7ef224c0d60}, !- Handle
  Rendering Color 1,                      !- Name
  230,                                    !- Rendering Red Value
  157,                                    !- Rendering Green Value
  120;                                    !- Rendering Blue Value

OS:DefaultScheduleSet,
  {ac690059-e988-4b4f-b619-85a8e7432222}, !- Handle
  189.1-2009 - Office - BreakRoom - CZ4-8 Schedule Set, !- Name
  ,                                       !- Hours of Operation Schedule Name
  {d48ab760-0200-4095-a820-ce656e1d6bb1}, !- Number of People Schedule Name
  {3a8e4e28-05ec-4393-9e49-bfcbe43db585}, !- People Activity Level Schedule Name
  {791b3663-a146-4932-8647-6e202eef4804}, !- Lighting Schedule Name
  {3ef4c2bd-9485-4633-aea6-c9dd22f146b6}, !- Electric Equipment Schedule Name
  ,                                       !- Gas Equipment Schedule Name
  ,                                       !- Hot Water Equipment Schedule Name
  {1df0a015-5f34-4086-b2bd-85f93ad40902}, !- Infiltration Schedule Name
  ,                                       !- Steam Equipment Schedule Name
  ;                                       !- Other Equipment Schedule Name

OS:Lights:Definition,
  {255ae4de-257d-4b5e-97c7-c68c4f9044c1}, !- Handle
  189.1-2009 - Office - BreakRoom - CZ4-8 Lights Definition, !- Name
  Watts/Area,                             !- Design Level Calculation Method
  ,                                       !- Lighting Level {W}
  11.6250232500465,                       !- Watts per Space Floor Area {W/m2}
  ;                                       !- Watts per Person {W/person}

OS:Lights,
  {16bc4ba6-49cc-4a24-86b9-bb50817a1f3d}, !- Handle
  189.1-2009 - Office - BreakRoom - CZ4-8 Lights, !- Name
  {255ae4de-257d-4b5e-97c7-c68c4f9044c1}, !- Lights Definition Name
  {6373ad1b-dea8-4b72-a5d2-7255693a7d1a}; !- Space or SpaceType Name

OS:Schedule:Ruleset,
  {791b3663-a146-4932-8647-6e202eef4804}, ! Handle
  Office Bldg Light,                      ! Name
  {89ee1607-d744-47f3-a6a1-ffe04da194bf}, ! Schedule Type Limits Name
  {cad184dc-b855-4656-bcf4-9a320d11c1b9}, ! Default Day Schedule Name
  {013a1c8b-ac9a-4a9a-bef5-450fec19c812}, ! Summer Design Day Schedule Name
  {6589b411-33f5-4b15-bcc9-6aa2ae88fc6a}; ! Winter Design Day Schedule Name

OS:ScheduleTypeLimits,
  {89ee1607-d744-47f3-a6a1-ffe04da194bf}, ! Handle
  Fraction,                               ! Name
  0,                                      ! Lower Limit Value
  1,                                      ! Upper Limit Value
  CONTINUOUS;                             ! Numeric Type

OS:Schedule:Day,
  {cad184dc-b855-4656-bcf4-9a320d11c1b9}, ! Handle
  Office Bldg Light Default Schedule,     ! Name
  {89ee1607-d744-47f3-a6a1-ffe04da194bf}, ! Schedule Type Limits Name
  ,                                       ! Interpolate to Timestep
  5,                                      !- Hour 1
  0,                                      !- Minute 1
  0.05,                                   !- Value Until Time 1
  7,                                      !- Hour 2
  0,                                      !- Minute 2
  0.1,                                    !- Value Until Time 2
  8,                                      !- Hour 3
  0,                                      !- Minute 3
  0.3,                                    !- Value Until Time 3
  17,                                     !- Hour 4
  0,                                      !- Minute 4
  0.9,                                    !- Value Until Time 4
  18,                                     !- Hour 5
  0,                                      !- Minute 5
  0.7,                                    !- Value Until Time 5
  20,                                     !- Hour 6
  0,                                      !- Minute 6
  0.5,                                    !- Value Until Time 6
  22,                                     !- Hour 7
  0,                                      !- Minute 7
  0.3,                                    !- Value Until Time 7
  23,                                     !- Hour 8
  0,                                      !- Minute 8
  0.1,                                    !- Value Until Time 8
  24,                                     !- Hour 9
  0,                                      !- Minute 9
  0.05;                                   !- Value Until Time 9

OS:Schedule:Day,
  {013a1c8b-ac9a-4a9a-bef5-450fec19c812}, ! Handle
  Office Bldg Light Summer Design Day,    ! Name
  {89ee1607-d744-47f3-a6a1-ffe04da194bf}, ! Schedule Type Limits Name
  ,                                       ! Interpolate to Timestep
  24,                                     ! Hour 1
  0,                                      ! Minute 1
  1;                                      ! Value Until Time 1

OS:Schedule:Day,
  {6589b411-33f5-4b15-bcc9-6aa2ae88fc6a}, ! Handle
  Office Bldg Light Winter Design Day,    ! Name
  {89ee1607-d744-47f3-a6a1-ffe04da194bf}, ! Schedule Type Limits Name
  ,                                       ! Interpolate to Timestep
  24,                                     ! Hour 1
  0,                                      ! Minute 1
  0;                                      ! Value Until Time 1

OS:Schedule:Rule,
  {43df8a54-fe54-454b-89a2-7c530e6621ea}, ! Handle
  Office Bldg Light Rule 1,               ! Name
  {791b3663-a146-4932-8647-6e202eef4804}, ! Schedule Ruleset Name
  0,                                      ! Rule Order
  {e3a3f244-863f-4d6e-a736-821a9e06b587}, ! Day Schedule Name
  Yes,                                    ! Apply Sunday
  No,                                     ! Apply Monday
  No,                                     ! Apply Tuesday
  No,                                     ! Apply Wednesday
  No,                                     ! Apply Thursday
  No,                                     ! Apply Friday
  No,                                     ! Apply Saturday
  ,                                       ! Apply Holiday
  DateRange,                              ! Date Specification Type
  1,                                      ! Start Month
  1,                                      ! Start Day
  12,                                     ! End Month
  31;                                     ! End Day

OS:Schedule:Day,
  {e3a3f244-863f-4d6e-a736-821a9e06b587}, ! Handle
  Office Bldg Light Rule 1 Day Schedule,  ! Name
  {89ee1607-d744-47f3-a6a1-ffe04da194bf}, ! Schedule Type Limits Name
  ,                                       ! Interpolate to Timestep
  24,                                     ! Hour 1
  0,                                      ! Minute 1
  0.050000000000000003;                   ! Value Until Time 1

OS:Schedule:Rule,
  {dcd5a8bf-39e6-4d30-a140-736c2d5e8618}, ! Handle
  Office Bldg Light Rule 2,               ! Name
  {791b3663-a146-4932-8647-6e202eef4804}, ! Schedule Ruleset Name
  1,                                      ! Rule Order
  {9a53b705-49f6-49c7-b36a-c9cc8dd9bade}, ! Day Schedule Name
  No,                                     ! Apply Sunday
  No,                                     ! Apply Monday
  No,                                     ! Apply Tuesday
  No,                                     ! Apply Wednesday
  No,                                     ! Apply Thursday
  No,                                     ! Apply Friday
  Yes,                                    ! Apply Saturday
  ,                                       ! Apply Holiday
  DateRange,                              ! Date Specification Type
  1,                                      ! Start Month
  1,                                      ! Start Day
  12,                                     ! End Month
  31;                                     ! End Day

OS:Schedule:Day,
  {9a53b705-49f6-49c7-b36a-c9cc8dd9bade}, ! Handle
  Office Bldg Light Rule 2 Day Schedule,  ! Name
  {89ee1607-d744-47f3-a6a1-ffe04da194bf}, ! Schedule Type Limits Name
  ,                                       ! Interpolate to Timestep
  6,                                      ! Hour 1
  0,                                      ! Minute 1
  0.050000000000000003,                   ! Value Until Time 1
  8,                                      ! Hour 2
  0,                                      ! Minute 2
  0.10000000000000001,                    ! Value Until Time 2
  14,                                     ! Hour 3
  0,                                      ! Minute 3
  0.5,                                    ! Value Until Time 3
  17,                                     ! Hour 4
  0,                                      ! Minute 4
  0.14999999999999999,                    ! Value Until Time 4
  24,                                     ! Hour 5
  0,                                      ! Minute 5
  0.050000000000000003;                   ! Value Until Time 5

OS:DesignSpecification:OutdoorAir,
  {5d369b2a-0c62-4082-9da5-b19f759ee34c}, !- Handle
  189.1-2009 - Office - BreakRoom - CZ4-8 Ventilation, !- Name
  Sum,                                    !- Outdoor Air Method
  0.007079211648,                         !- Outdoor Air Flow per Person {m3/s-person}
  ,                                       !- Outdoor Air Flow per Floor Area {m3/s-m2}
  ,                                       !- Outdoor Air Flow Rate {m3/s}
  ,                                       !- Outdoor Air Flow Air Changes per Hour {1/hr}
  ;                                       !- Outdoor Air Flow Rate Fraction Schedule Name

OS:People:Definition,
  {a793c744-35ce-4dfb-adfd-d8e248b1bc46}, !- Handle
  189.1-2009 - Office - BreakRoom - CZ4-8 People Definition, !- Name
  People/Area,                            !- Number of People Calculation Method
  ,                                       !- Number of People {people}
  0.538195520835486,                      !- People per Space Floor Area {person/m2}
  ,                                       !- Space Floor Area per Person {m2/person}
  0.3;                                    !- Fraction Radiant

OS:People,
  {e1779f27-ec15-498f-9bd3-467b06862f64}, !- Handle
  189.1-2009 - Office - BreakRoom - CZ4-8 People, !- Name
  {a793c744-35ce-4dfb-adfd-d8e248b1bc46}, !- People Definition Name
  {6373ad1b-dea8-4b72-a5d2-7255693a7d1a}; !- Space or SpaceType Name

OS:Schedule:Ruleset,
  {d48ab760-0200-4095-a820-ce656e1d6bb1}, ! Handle
  Office Misc Occ,                        ! Name
  {89ee1607-d744-47f3-a6a1-ffe04da194bf}, ! Schedule Type Limits Name
  {d9e36101-e97a-4618-ade8-63b7135399ab}, ! Default Day Schedule Name
  {eff6bc1b-9938-4780-a4cd-b7ad935f5e6d}, ! Summer Design Day Schedule Name
  {0c6e744a-fd64-4086-b52c-df040e79e4e4}; ! Winter Design Day Schedule Name

OS:Schedule:Day,
  {d9e36101-e97a-4618-ade8-63b7135399ab}, ! Handle
  Office Bldg Occ Default Schedule 1,     ! Name
  {89ee1607-d744-47f3-a6a1-ffe04da194bf}, ! Schedule Type Limits Name
  ,                                       ! Interpolate to Timestep
  6,                                      !- Hour 1
  0,                                      !- Minute 1
  0,                                      !- Value Until Time 1
  7,                                      !- Hour 2
  0,                                      !- Minute 2
  0.100000001490116,                      !- Value Until Time 2
  8,                                      !- Hour 3
  0,                                      !- Minute 3
  0.200000002980232,                      !- Value Until Time 3
  20,                                     !- Hour 4
  0,                                      !- Minute 4
  0.400000005960464,                      !- Value Until Time 4
  22,                                     !- Hour 5
  0,                                      !- Minute 5
  0.100000001490116,                      !- Value Until Time 5
  24,                                     !- Hour 6
  0,                                      !- Minute 6
  0.0500000007450581;                     !- Value Until Time 6

OS:Schedule:Day,
  {eff6bc1b-9938-4780-a4cd-b7ad935f5e6d}, ! Handle
  Office Bldg Occ Summer Design Day 1,    ! Name
  {89ee1607-d744-47f3-a6a1-ffe04da194bf}, ! Schedule Type Limits Name
  ,                                       ! Interpolate to Timestep
  6,                                      ! Hour 1
  0,                                      ! Minute 1
  0,                                      ! Value Until Time 1
  22,                                     ! Hour 2
  0,                                      ! Minute 2
  1,                                      ! Value Until Time 2
  24,                                     ! Hour 3
  0,                                      ! Minute 3
  0.050000000000000003;                   ! Value Until Time 3

OS:Schedule:Day,
  {0c6e744a-fd64-4086-b52c-df040e79e4e4}, ! Handle
  Office Bldg Occ Winter Design Day 1,    ! Name
  {89ee1607-d744-47f3-a6a1-ffe04da194bf}, ! Schedule Type Limits Name
  ,                                       ! Interpolate to Timestep
  24,                                     ! Hour 1
  0,                                      ! Minute 1
  0;                                      ! Value Until Time 1

OS:Schedule:Rule,
  {f453e979-3548-43ac-a9f9-94591e320962}, ! Handle
  Office Misc Occ Rule 1,                 ! Name
  {d48ab760-0200-4095-a820-ce656e1d6bb1}, ! Schedule Ruleset Name
  0,                                      ! Rule Order
  {2c4775e1-37d1-4389-96f0-1e0c8acb387a}, ! Day Schedule Name
  Yes,                                    ! Apply Sunday
  No,                                     ! Apply Monday
  No,                                     ! Apply Tuesday
  No,                                     ! Apply Wednesday
  No,                                     ! Apply Thursday
  No,                                     ! Apply Friday
  No,                                     ! Apply Saturday
  ,                                       ! Apply Holiday
  DateRange,                              ! Date Specification Type
  1,                                      ! Start Month
  1,                                      ! Start Day
  12,                                     ! End Month
  31;                                     ! End Day

OS:Schedule:Day,
  {2c4775e1-37d1-4389-96f0-1e0c8acb387a}, ! Handle
  Office Bldg Occ Rule 1 Day Schedule 1,  ! Name
  {89ee1607-d744-47f3-a6a1-ffe04da194bf}, ! Schedule Type Limits Name
  ,                                       ! Interpolate to Timestep
  24,                                     ! Hour 1
  0,                                      ! Minute 1
  0;                                      ! Value Until Time 1

OS:Schedule:Rule,
  {2c15cb5e-40fc-4b8d-bfb7-4ba307f15418}, ! Handle
  Office Misc Occ Rule 2,                 ! Name
  {d48ab760-0200-4095-a820-ce656e1d6bb1}, ! Schedule Ruleset Name
  1,                                      ! Rule Order
  {381673b4-3f56-4158-a29e-f253a3d4a18d}, ! Day Schedule Name
  No,                                     ! Apply Sunday
  No,                                     ! Apply Monday
  No,                                     ! Apply Tuesday
  No,                                     ! Apply Wednesday
  No,                                     ! Apply Thursday
  No,                                     ! Apply Friday
  Yes,                                    ! Apply Saturday
  ,                                       ! Apply Holiday
  DateRange,                              ! Date Specification Type
  1,                                      ! Start Month
  1,                                      ! Start Day
  12,                                     ! End Month
  31;                                     ! End Day

OS:Schedule:Day,
  {381673b4-3f56-4158-a29e-f253a3d4a18d}, ! Handle
  Office Bldg Occ Rule 2 Day Schedule 1,  ! Name
  {89ee1607-d744-47f3-a6a1-ffe04da194bf}, ! Schedule Type Limits Name
  ,                                       ! Interpolate to Timestep
  6,                                      !- Hour 1
  0,                                      !- Minute 1
  0,                                      !- Value Until Time 1
  8,                                      !- Hour 2
  0,                                      !- Minute 2
  0.100000001490116,                      !- Value Until Time 2
  14,                                     !- Hour 3
  0,                                      !- Minute 3
  0.25,                                   !- Value Until Time 3
  17,                                     !- Hour 4
  0,                                      !- Minute 4
  0.100000001490116,                      !- Value Until Time 4
  24,                                     !- Hour 5
  0,                                      !- Minute 5
  0;                                      !- Value Until Time 5

OS:Schedule:Ruleset,
  {3a8e4e28-05ec-4393-9e49-bfcbe43db585}, ! Handle
  Office Activity,                        ! Name
  {8f98d814-ff3b-4551-b70c-77b23d08a129}, ! Schedule Type Limits Name
  {9f8f8fc7-644f-4f17-9832-bdba7c536974}, ! Default Day Schedule Name
  {6e9299f4-174f-48d3-b97d-8bbc0c662e3b}, ! Summer Design Day Schedule Name
  {338e996d-1c36-4afb-a4f6-b0a2e743634e}; ! Winter Design Day Schedule Name

OS:ScheduleTypeLimits,
  {8f98d814-ff3b-4551-b70c-77b23d08a129}, !- Handle
  ActivityLevel,                          !- Name
  0,                                      !- Lower Limit Value
  ,                                       !- Upper Limit Value
  Continuous,                             !- Numeric Type
  ActivityLevel;                          !- Unit Type

OS:Schedule:Day,
  {9f8f8fc7-644f-4f17-9832-bdba7c536974}, ! Handle
  Office Activity Default Schedule,       ! Name
  {8f98d814-ff3b-4551-b70c-77b23d08a129}, ! Schedule Type Limits Name
  ,                                       ! Interpolate to Timestep
  24,                                     !- Hour 1
  0,                                      !- Minute 1
  132;                                    !- Value Until Time 1

OS:Schedule:Day,
  {6e9299f4-174f-48d3-b97d-8bbc0c662e3b}, ! Handle
  Office Activity Summer Design Day,      ! Name
  {8f98d814-ff3b-4551-b70c-77b23d08a129}, ! Schedule Type Limits Name
  ,                                       ! Interpolate to Timestep
  24,                                     !- Hour 1
  0,                                      !- Minute 1
  132;                                    !- Value Until Time 1

OS:Schedule:Day,
  {338e996d-1c36-4afb-a4f6-b0a2e743634e}, ! Handle
  Office Activity Winter Design Day,      ! Name
  {8f98d814-ff3b-4551-b70c-77b23d08a129}, ! Schedule Type Limits Name
  ,                                       ! Interpolate to Timestep
  24,                                     !- Hour 1
  0,                                      !- Minute 1
  132;                                    !- Value Until Time 1

OS:SpaceInfiltration:DesignFlowRate,
  {85f9c34c-aa16-4544-b83c-816632146643}, !- Handle
  189.1-2009 - Office - BreakRoom - CZ4-8 Infiltration, !- Name
  {6373ad1b-dea8-4b72-a5d2-7255693a7d1a}, !- Space or SpaceType Name
  ,                                       !- Schedule Name
  Flow/ExteriorArea,                      !- Design Flow Rate Calculation Method
  ,                                       !- Design Flow Rate {m3/s}
  ,                                       !- Flow per Space Floor Area {m3/s-m2}
  0.000226568,                            !- Flow per Exterior Surface Area {m3/s-m2}
  ,                                       !- Air Changes per Hour {1/hr}
  ,                                       !- Constant Term Coefficient
  ,                                       !- Temperature Term Coefficient
  ,                                       !- Velocity Term Coefficient
  ;                                       !- Velocity Squared Term Coefficient

OS:Schedule:Ruleset,
  {1df0a015-5f34-4086-b2bd-85f93ad40902}, ! Handle
  Office Infil Quarter On,                ! Name
  {89ee1607-d744-47f3-a6a1-ffe04da194bf}, ! Schedule Type Limits Name
  {577ae017-9d79-4687-ae63-c94e2b43176c}, ! Default Day Schedule Name
  {67f226b7-8342-4a2b-882b-89e701b9b806}, ! Summer Design Day Schedule Name
  {d16e7761-4088-4e04-b4bb-091eaf24a4b5}; ! Winter Design Day Schedule Name

OS:Schedule:Day,
  {577ae017-9d79-4687-ae63-c94e2b43176c}, ! Handle
  Office Infil Quarter On Default Schedule, ! Name
  {89ee1607-d744-47f3-a6a1-ffe04da194bf}, ! Schedule Type Limits Name
  ,                                       ! Interpolate to Timestep
  6,                                      !- Hour 1
  0,                                      !- Minute 1
  1,                                      !- Value Until Time 1
  22,                                     !- Hour 2
  0,                                      !- Minute 2
  0.25,                                   !- Value Until Time 2
  24,                                     !- Hour 3
  0,                                      !- Minute 3
  1;                                      !- Value Until Time 3

OS:Schedule:Day,
  {67f226b7-8342-4a2b-882b-89e701b9b806}, ! Handle
  Office Infil Quarter On Summer Design Day, ! Name
  {89ee1607-d744-47f3-a6a1-ffe04da194bf}, ! Schedule Type Limits Name
  ,                                       ! Interpolate to Timestep
  6,                                      ! Hour 1
  0,                                      ! Minute 1
  1,                                      ! Value Until Time 1
  22,                                     ! Hour 2