
OS:Version,
  {a18259be-0a02-4114-90df-a8ec317931c4}, !- Handle
  2.3.0;                                  !- Version Identifier

OS:ClimateZones,
  {8a3ac41c-57d4-48e4-a48e-1f232e262211}, !- Handle
  ,                                       !- Active Institution
  ,                                       !- Active Year
  ASHRAE,                                 !- Climate Zone Institution Name 1
  ANSI/ASHRAE Standard 169,               !- Climate Zone Document Name 1
  2006,                                   !- Climate Zone Document Year 1
  ,                                       !- Climate Zone Value 1
  CEC,                                    !- Climate Zone Institution Name 2
  California Climate Zone Descriptions,   !- Climate Zone Document Name 2
  1995,                                   !- Climate Zone Document Year 2
  3;                                      !- Climate Zone Value 2

OS:LifeCycleCost:Parameters,
  {1d4d0f18-e6dd-45c8-896c-f4f2a89e6ae5}, !- Handle
  FEMP,                                   !- Analysis Type
  ,                                       !- Discounting Convention
  ,                                       !- Inflation Approach
  ,                                       !- Real Discount Rate
  ,                                       !- Nominal Discount Rate
  ,                                       !- Inflation
  ,                                       !- Base Date Month
  ,                                       !- Base Date Year
  ,                                       !- Service Date Month
  ,                                       !- Service Date Year
  ,                                       !- Length of Study Period in Years
  ,                                       !- Tax Rate
  ,                                       !- Depreciation Method
  Yes;                                    !- Use NIST Fuel Escalation Rates

OS:YearDescription,
  {c1349a5a-d7e1-4ed9-8e5b-24480649c25c}, !- Handle
  ,                                       !- Calendar Year
  Sunday;                                 !- Day of Week for Start Day

OS:RadianceParameters,
  {8297fd56-36de-4b79-a182-b7636f4ae3e3}, !- Handle
  1,                                      !- Accumulated Rays per Record
  0,                                      !- Direct Threshold
  1,                                      !- Direct Certainty
  1,                                      !- Direct Jitter
  1,                                      !- Direct Pretest
  6,                                      !- Ambient Bounces VMX
  2,                                      !- Ambient Bounces DMX
  4050,                                   !- Ambient Divisions VMX
  512,                                    !- Ambient Divisions DMX
  256,                                    !- Ambient Supersamples
  0.001,                                  !- Limit Weight VMX
  0.001,                                  !- Limit Weight DMX
  500,                                    !- Klems Sampling Density
  146;                                    !- Sky Discretization Resolution

OS:SimulationControl,
  {7c57f4fc-548f-44e7-a438-1feca6a75629}; !- Handle

OS:Sizing:Parameters,
  {ee365675-827e-489e-9a24-0f596988dec4}, !- Handle
  1.25,                                   !- Heating Sizing Factor
  1.15;                                   !- Cooling Sizing Factor

OS:ProgramControl,
  {8a7b938e-cdcb-40af-82b1-79c267c36bae}; !- Handle

OS:Timestep,
  {31824a36-2f0f-4919-a534-cdb00e20d2e0}, !- Handle
  6;                                      !- Number of Timesteps per Hour

OS:OutputControl:ReportingTolerances,
  {275082a5-6cfd-4756-972e-8810ab253e29}; !- Handle

OS:ConvergenceLimits,
  {fcca1605-8471-4f2f-a485-a59582311771}; !- Handle

OS:ShadowCalculation,
  {d875de65-75c7-4d9d-883e-07bd79421b67}, !- Handle
  7,                                      !- Calculation Frequency
  15000;                                  !- Maximum Figures in Shadow Overlap Calculations

OS:SurfaceConvectionAlgorithm:Inside,
  {5add9a33-b760-4e82-a0f9-3ae0e369b9c4}, !- Handle
  TARP;                                   !- Algorithm

OS:SurfaceConvectionAlgorithm:Outside,
  {0257be16-14fc-418e-bc73-178201ccc4ec}, !- Handle
  DOE-2;                                  !- Algorithm

OS:HeatBalanceAlgorithm,
  {5a22c4c4-a6a6-4769-b0a8-f79498f98a6d}, !- Handle
  ConductionTransferFunction,             !- Algorithm
  200;                                    !- Surface Temperature Upper Limit {C}

OS:ZoneAirHeatBalanceAlgorithm,
  {24c912f8-6f7f-4792-8ea0-a8d47b3c41a1}, !- Handle
  AnalyticalSolution;                     !- Algorithm

OS:ZoneAirContaminantBalance,
  {07e7d420-4b9b-4760-8a70-01b36aa6074f}; !- Handle

OS:ZoneCapacitanceMultiplier:ResearchSpecial,
  {91056672-db13-4057-9cb7-7ac44d24bfc5}, !- Handle
  ,                                       !- Temperature Capacity Multiplier
  ,                                       !- Humidity Capacity Multiplier
  ;                                       !- Carbon Dioxide Capacity Multiplier

OS:RunPeriod,
  {17c33f47-c9b9-463a-84bc-12596f349148}, !- Handle
  Run Period 1,                           !- Name
  1,                                      !- Begin Month
  1,                                      !- Begin Day of Month
  12,                                     !- End Month
  31,                                     !- End Day of Month
  ,                                       !- Use Weather File Holidays and Special Days
  ,                                       !- Use Weather File Daylight Saving Period
  ,                                       !- Apply Weekend Holiday Rule
  ,                                       !- Use Weather File Rain Indicators
  ,                                       !- Use Weather File Snow Indicators
  ;                                       !- Number of Times Runperiod to be Repeated

OS:Building,
  {e0ce3521-4e53-4eca-8017-2f1c8dec2b50}, !- Handle
  Building 1,                             !- Name
  ,                                       !- Building Sector Type
  ,                                       !- North Axis {deg}
  ,                                       !- Nominal Floor to Floor Height {m}
  {3f848b11-3926-41ec-b130-2463bea2f481}, !- Space Type Name
  {a118443e-28bd-40f3-904b-10231ba4aa9c}, !- Default Construction Set Name
  ,                                       !- Default Schedule Set Name
  ,                                       !- Standards Number of Stories
  ,                                       !- Standards Number of Above Ground Stories
  ,                                       !- Standards Building Type
  ,                                       !- Standards Number of Living Units
  ,                                       !- Relocatable
  ;                                       !- Nominal Floor to Ceiling Height {m}

OS:Facility,
  {b6e6be84-f909-42a5-9deb-ef70c0296721}; !- Handle

OS:Site,
  {f38b0e3c-04e1-4822-940e-9b46c436222c}, !- Handle
  Piacenza,                               !- Name
  44.92,                                  !- Latitude {deg}
  9.73,                                   !- Longitude {deg}
  1,                                      !- Time Zone {hr}
  134,                                    !- Elevation {m}
  ;                                       !- Terrain

OS:SpaceType,
  {6b00e267-84d4-467c-b7db-3828a82e37b1}, !- Handle
  189.1-2009 - SmHotel - Corridor - CZ4-8, !- Name
  {a118443e-28bd-40f3-904b-10231ba4aa9c}, !- Default Construction Set Name
  {c3e650b5-11ac-415f-b0dc-ac3faa708648}, !- Default Schedule Set Name
  {6186c0b8-ada5-401e-9d4c-87112486dfa8}, !- Group Rendering Name
  {bb4f5f7b-ba45-45e7-ae1f-eca94867cadc}, !- Design Specification Outdoor Air Object Name
  SmallHotel,                             !- Standards Building Type
  Corridor;                               !- Standards Space Type

OS:Rendering:Color,
  {6186c0b8-ada5-401e-9d4c-87112486dfa8}, !- Handle
  Rendering Color 1,                      !- Name
  169,                                    !- Rendering Red Value
  31,                                     !- Rendering Green Value
  31;                                     !- Rendering Blue Value

OS:DefaultScheduleSet,
  {c3e650b5-11ac-415f-b0dc-ac3faa708648}, !- Handle
  189.1-2009 - SmHotel - Corridor - CZ4-8 Schedule Set, !- Name
  ,                                       !- Hours of Operation Schedule Name
  ,                                       !- Number of People Schedule Name
  ,                                       !- People Activity Level Schedule Name
  {15c74316-93c5-491f-b0f2-260e01fe12fa}, !- Lighting Schedule Name
  ,                                       !- Electric Equipment Schedule Name
  ,                                       !- Gas Equipment Schedule Name
  ,                                       !- Hot Water Equipment Schedule Name
  {4c9b4f8e-662a-4772-afbf-e13ca44638e5}, !- Infiltration Schedule Name
  ,                                       !- Steam Equipment Schedule Name
  ;                                       !- Other Equipment Schedule Name

OS:Lights:Definition,
  {a9d727ff-67c1-46f7-ba7e-91a69598fe57}, !- Handle
  189.1-2009 - SmHotel - Corridor - CZ4-8 Lights Definition, !- Name
  Watts/Area,                             !- Design Level Calculation Method
  ,                                       !- Lighting Level {W}
  4.84375968751938,                       !- Watts per Space Floor Area {W/m2}
  ;                                       !- Watts per Person {W/person}

OS:Lights,
  {b8a4cad4-2f48-4e86-9478-c4c4a9d3cba2}, !- Handle
  189.1-2009 - SmHotel - Corridor - CZ4-8 Lights, !- Name
  {a9d727ff-67c1-46f7-ba7e-91a69598fe57}, !- Lights Definition Name
  {6b00e267-84d4-467c-b7db-3828a82e37b1}; !- Space or SpaceType Name

OS:Schedule:Ruleset,
  {15c74316-93c5-491f-b0f2-260e01fe12fa}, ! Handle
  SmallHotel Bldg Light,                  ! Name
  {adadbc88-aa81-45bd-833c-1790dfbc6363}, ! Schedule Type Limits Name
  {eebb16c5-212d-4353-8157-62be48e96f36}, ! Default Day Schedule Name
  {cb7f72fc-5b1a-4315-af57-25c9b1b7de8b}, ! Summer Design Day Schedule Name
  {05e1e3e2-c3f3-433c-9f7e-1c716593f8bf}; ! Winter Design Day Schedule Name

OS:ScheduleTypeLimits,
  {adadbc88-aa81-45bd-833c-1790dfbc6363}, ! Handle
  Fraction,                               ! Name
  0,                                      ! Lower Limit Value
  1,                                      ! Upper Limit Value
  CONTINUOUS;                             ! Numeric Type

OS:Schedule:Day,
  {eebb16c5-212d-4353-8157-62be48e96f36}, ! Handle
  SmallHotel Bldg Light Default Schedule, ! Name
  {adadbc88-aa81-45bd-833c-1790dfbc6363}, ! Schedule Type Limits Name
  ,                                       ! Interpolate to Timestep
  1,                                      !- Hour 1
  0,                                      !- Minute 1
  0.2,                                    !- Value Until Time 1
  2,                                      !- Hour 2
  0,                                      !- Minute 2
  0.15,                                   !- Value Until Time 2
  5,                                      !- Hour 3
  0,                                      !- Minute 3
  0.1,                                    !- Value Until Time 3
  6,                                      !- Hour 4
  0,                                      !- Minute 4
  0.2,                                    !- Value Until Time 4
  7,                                      !- Hour 5
  0,                                      !- Minute 5
  0.4,                                    !- Value Until Time 5
  8,                                      !- Hour 6
  0,                                      !- Minute 6
  0.5,                                    !- Value Until Time 6
  10,                                     !- Hour 7
  0,                                      !- Minute 7
  0.4,                                    !- Value Until Time 7
  18,                                     !- Hour 8
  0,                                      !- Minute 8
  0.25,                                   !- Value Until Time 8
  19,                                     !- Hour 9
  0,                                      !- Minute 9
  0.6,                                    !- Value Until Time 9
  20,                                     !- Hour 10
  0,                                      !- Minute 10
  0.8,                                    !- Value Until Time 10
  21,                                     !- Hour 11
  0,                                      !- Minute 11
  0.9,                                    !- Value Until Time 11
  22,                                     !- Hour 12
  0,                                      !- Minute 12
  0.8,                                    !- Value Until Time 12
  23,                                     !- Hour 13
  0,                                      !- Minute 13
  0.6,                                    !- Value Until Time 13
  24,                                     !- Hour 14
  0,                                      !- Minute 14
  0.3;                                    !- Value Until Time 14

OS:Schedule:Day,
  {cb7f72fc-5b1a-4315-af57-25c9b1b7de8b}, ! Handle
  SmallHotel Bldg Light Summer Design Day, ! Name
  {adadbc88-aa81-45bd-833c-1790dfbc6363}, ! Schedule Type Limits Name
  ,                                       ! Interpolate to Timestep
  24,                                     ! Hour 1
  0,                                      ! Minute 1
  1;                                      ! Value Until Time 1

OS:Schedule:Day,
  {05e1e3e2-c3f3-433c-9f7e-1c716593f8bf}, ! Handle
  SmallHotel Bldg Light Winter Design Day, ! Name
  {adadbc88-aa81-45bd-833c-1790dfbc6363}, ! Schedule Type Limits Name
  ,                                       ! Interpolate to Timestep
  24,                                     ! Hour 1
  0,                                      ! Minute 1
  0;                                      ! Value Until Time 1

OS:Schedule:Rule,
  {cfcf58e1-32cd-4abe-8226-147bc68ef1f4}, ! Handle
  SmallHotel Bldg Light Rule 1,           ! Name
  {15c74316-93c5-491f-b0f2-260e01fe12fa}, ! Schedule Ruleset Name
  0,                                      ! Rule Order
  {95a6c606-f1f0-425b-ba3a-b0f7bd58dfa8}, ! Day Schedule Name
  Yes,                                    ! Apply Sunday
  No,                                     ! Apply Monday
  No,                                     ! Apply Tuesday
  No,                                     ! Apply Wednesday
  No,                                     ! Apply Thursday
  No,                                     ! Apply Friday
  No,                                     ! Apply Saturday
  ,                                       ! Apply Holiday
  DateRange,                              ! Date Specification Type
  1,                                      ! Start Month
  1,                                      ! Start Day
  12,                                     ! End Month
  31;                                     ! End Day

OS:Schedule:Day,
  {95a6c606-f1f0-425b-ba3a-b0f7bd58dfa8}, ! Handle
  SmallHotel Bldg Light Rule 1 Day Schedule, ! Name
  {adadbc88-aa81-45bd-833c-1790dfbc6363}, ! Schedule Type Limits Name
  ,                                       ! Interpolate to Timestep
  2,                                      ! Hour 1
  0,                                      ! Minute 1
  0.29999999999999999,                    ! Value Until Time 1
  6,                                      ! Hour 2
  0,                                      ! Minute 2
  0.20000000000000001,                    ! Value Until Time 2
  7,                                      ! Hour 3
  0,                                      ! Minute 3
  0.29999999999999999,                    ! Value Until Time 3
  9,                                      ! Hour 4
  0,                                      ! Minute 4
  0.40000000000000002,                    ! Value Until Time 4
  13,                                     ! Hour 5
  0,                                      ! Minute 5
  0.29999999999999999,                    ! Value Until Time 5
  18,                                     ! Hour 6
  0,                                      ! Minute 6
  0.20000000000000001,                    ! Value Until Time 6
  19,                                     ! Hour 7
  0,                                      ! Minute 7
  0.5,                                    ! Value Until Time 7
  20,                                     ! Hour 8
  0,                                      ! Minute 8
  0.69999999999999996,                    ! Value Until Time 8
  21,                                     ! Hour 9
  0,                                      ! Minute 9
  0.80000000000000004,                    ! Value Until Time 9
  22,                                     ! Hour 10
  0,                                      ! Minute 10
  0.59999999999999998,                    ! Value Until Time 10
  23,                                     ! Hour 11
  0,                                      ! Minute 11
  0.5,                                    ! Value Until Time 11
  24,                                     ! Hour 12
  0,                                      ! Minute 12
  0.29999999999999999;                    ! Value Until Time 12

OS:Schedule:Rule,
  {9ee9ecc9-66d4-4c3f-a965-14248566b0ce}, ! Handle
  SmallHotel Bldg Light Rule 2,           ! Name
  {15c74316-93c5-491f-b0f2-260e01fe12fa}, ! Schedule Ruleset Name
  1,                                      ! Rule Order
  {47573633-87e6-42f4-86f6-1d2524d5d516}, ! Day Schedule Name
  No,                                     ! Apply Sunday
  No,                                     ! Apply Monday
  No,                                     ! Apply Tuesday
  No,                                     ! Apply Wednesday
  No,                                     ! Apply Thursday
  No,                                     ! Apply Friday
  Yes,                                    ! Apply Saturday
  ,                                       ! Apply Holiday
  DateRange,                              ! Date Specification Type
  1,                                      ! Start Month
  1,                                      ! Start Day
  12,                                     ! End Month
  31;                                     ! End Day

OS:Schedule:Day,
  {47573633-87e6-42f4-86f6-1d2524d5d516}, ! Handle
  SmallHotel Bldg Light Rule 2 Day Schedule, ! Name
  {adadbc88-aa81-45bd-833c-1790dfbc6363}, ! Schedule Type Limits Name
  ,                                       ! Interpolate to Timestep
  2,                                      ! Hour 1
  0,                                      ! Minute 1
  0.20000000000000001,                    ! Value Until Time 1
  6,                                      ! Hour 2
  0,                                      ! Minute 2
  0.10000000000000001,                    ! Value Until Time 2
  8,                                      ! Hour 3
  0,                                      ! Minute 3
  0.29999999999999999,                    ! Value Until Time 3
  10,                                     ! Hour 4
  0,                                      ! Minute 4
  0.40000000000000002,                    ! Value Until Time 4
  11,                                     ! Hour 5
  0,                                      ! Minute 5
  0.29999999999999999,                    ! Value Until Time 5
  18,                                     ! Hour 6
  0,                                      ! Minute 6
  0.25,                                   ! Value Until Time 6
  19,                                     ! Hour 7
  0,                                      ! Minute 7
  0.59999999999999998,                    ! Value Until Time 7
  22,                                     ! Hour 8
  0,                                      ! Minute 8
  0.69999999999999996,                    ! Value Until Time 8
  23,                                     ! Hour 9
  0,                                      ! Minute 9
  0.59999999999999998,                    ! Value Until Time 9
  24,                                     ! Hour 10
  0,                                      ! Minute 10
  0.29999999999999999;                    ! Value Until Time 10

OS:DesignSpecification:OutdoorAir,
  {bb4f5f7b-ba45-45e7-ae1f-eca94867cadc}, !- Handle
  189.1-2009 - SmHotel - Corridor - CZ4-8 Ventilation, !- Name
  Sum,                                    !- Outdoor Air Method
  ,                                       !- Outdoor Air Flow per Person {m3/s-person}
  0.000254,                               !- Outdoor Air Flow per Floor Area {m3/s-m2}
  ,                                       !- Outdoor Air Flow Rate {m3/s}
  ,                                       !- Outdoor Air Flow Air Changes per Hour {1/hr}
  ;                                       !- Outdoor Air Flow Rate Fraction Schedule Name

OS:SpaceInfiltration:DesignFlowRate,
  {40799a73-feb8-4efc-a40a-789e4064cccb}, !- Handle
  189.1-2009 - SmHotel - Corridor - CZ4-8 Infiltration, !- Name
  {6b00e267-84d4-467c-b7db-3828a82e37b1}, !- Space or SpaceType Name
  ,                                       !- Schedule Name
  Flow/ExteriorArea,                      !- Design Flow Rate Calculation Method
  ,                                       !- Design Flow Rate {m3/s}
  ,                                       !- Flow per Space Floor Area {m3/s-m2}
  0.000226568,                            !- Flow per Exterior Surface Area {m3/s-m2}
  ,                                       !- Air Changes per Hour {1/hr}
  ,                                       !- Constant Term Coefficient
  ,                                       !- Temperature Term Coefficient
  ,                                       !- Velocity Term Coefficient
  ;                                       !- Velocity Squared Term Coefficient

OS:Schedule:Ruleset,
  {4c9b4f8e-662a-4772-afbf-e13ca44638e5}, ! Handle
  SmallHotel Infil Half On,               ! Name
  {adadbc88-aa81-45bd-833c-1790dfbc6363}, ! Schedule Type Limits Name
  {a3def443-84c6-40d0-a8c1-1271bcfd103d}, ! Default Day Schedule Name
  {0f7b7dd5-0e38-4695-ae1f-cceb4f798466}, ! Summer Design Day Schedule Name
  {d1534595-ec7e-4dcd-8a0c-03c2563ef3fd}; ! Winter Design Day Schedule Name

OS:Schedule:Day,
  {a3def443-84c6-40d0-a8c1-1271bcfd103d}, ! Handle
  SmallHotel Infil Half On Default Schedule, ! Name
  {adadbc88-aa81-45bd-833c-1790dfbc6363}, ! Schedule Type Limits Name
  ,                                       ! Interpolate to Timestep
  24,                                     !- Hour 1
  0,                                      !- Minute 1
  0.5;                                    !- Value Until Time 1

OS:Schedule:Day,
  {0f7b7dd5-0e38-4695-ae1f-cceb4f798466}, ! Handle
  SmallHotel Infil Half On Summer Design Day, ! Name
  {adadbc88-aa81-45bd-833c-1790dfbc6363}, ! Schedule Type Limits Name
  ,                                       ! Interpolate to Timestep
  24,                                     ! Hour 1
  0,                                      ! Minute 1
  0.5;                                    ! Value Until Time 1

OS:Schedule:Day,
  {d1534595-ec7e-4dcd-8a0c-03c2563ef3fd}, ! Handle
  SmallHotel Infil Half On Winter Design Day, ! Name
  {adadbc88-aa81-45bd-833c-1790dfbc6363}, ! Schedule Type Limits Name
  ,                                       ! Interpolate to Timestep
  24,                                     ! Hour 1
  0,                                      ! Minute 1
  0.5;                                    ! Value Until Time 1

OS:ThermostatSetpoint:DualSetpoint,
  {280c47c9-b605-4f12-9e2a-b974b1863c97}, !- Handle
  189.1-2009 - SmHotel - Corridor - CZ4-8 Thermostat, !- Name
  {504e167a-1e51-4938-9237-aecf2d031e66}, !- Heating Setpoint Temperature Schedule Name
  {8476889d-b5b9-4cdd-a2bb-d59685afed0f}; !- Cooling Setpoint Temperature Schedule Name

OS:Schedule:Ruleset,
  {504e167a-1e51-4938-9237-aecf2d031e66}, ! Handle
  SmallHotel HtgSetp,                     ! Name
  {e48fe18c-74b6-445f-a82a-dc525b54439c}, ! Schedule Type Limits Name
  {ad6012fa-3e06-438f-994b-16560326853c}, ! Default Day Schedule Name
  {d1f1f81d-2b82-4b78-a0f7-ae9e3d93ed51}, ! Summer Design Day Schedule Name
  {a1ea7908-55c2-4bc7-91e3-244369974aa2}; ! Winter Design Day Schedule Name

OS:ScheduleTypeLimits,
  {e48fe18c-74b6-445f-a82a-dc525b54439c}, !- Handle
  Temperature 42,                         !- Name
  ,                                       !- Lower Limit Value
  ,                                       !- Upper Limit Value
  Continuous,                             !- Numeric Type
  Temperature;                            !- Unit Type

OS:Schedule:Day,
  {ad6012fa-3e06-438f-994b-16560326853c}, ! Handle
  SmallHotel HtgSetp Default Schedule,    ! Name
  {e48fe18c-74b6-445f-a82a-dc525b54439c}, ! Schedule Type Limits Name
  ,                                       ! Interpolate to Timestep
  24,                                     !- Hour 1
  0,                                      !- Minute 1
  21;                                     !- Value Until Time 1

OS:Schedule:Day,
  {d1f1f81d-2b82-4b78-a0f7-ae9e3d93ed51}, ! Handle
  SmallHotel HtgSetp Summer Design Day,   ! Name
  {e48fe18c-74b6-445f-a82a-dc525b54439c}, ! Schedule Type Limits Name
  ,                                       ! Interpolate to Timestep
  24,                                     ! Hour 1
  0,                                      ! Minute 1
  21;                                     ! Value Until Time 1

OS:Schedule:Day,
  {a1ea7908-55c2-4bc7-91e3-244369974aa2}, ! Handle
  SmallHotel HtgSetp Winter Design Day,   ! Name
  {e48fe18c-74b6-445f-a82a-dc525b54439c}, ! Schedule Type Limits Name
  ,                                       ! Interpolate to Timestep
  24,                                     ! Hour 1
  0,                                      ! Minute 1
  21;                                     ! Value Until Time 1

OS:Schedule:Ruleset,
  {8476889d-b5b9-4cdd-a2bb-d59685afed0f}, ! Handle
  SmallHotel ClgSetp,                     ! Name
  {dba60889-14ab-4a13-95db-88eba48cd778}, ! Schedule Type Limits Name
  {1252f45d-9176-4963-ac3a-d338581b4c86}, ! Default Day Schedule Name
  {86eeaff9-fafa-48cb-b4de-ac418cccd13e}, ! Summer Design Day Schedule Name
  {2317c894-65a0-4789-bfd2-774861044cc9}; ! Winter Design Day Schedule Name

OS:ScheduleTypeLimits,
  {dba60889-14ab-4a13-95db-88eba48cd778}, !- Handle
  Temperature 35,                         !- Name
  ,                                       !- Lower Limit Value
  ,                                       !- Upper Limit Value
  Continuous,                             !- Numeric Type
  Temperature;                            !- Unit Type

OS:Schedule:Day,
  {1252f45d-9176-4963-ac3a-d338581b4c86}, ! Handle
  SmallHotel ClgSetp Default Schedule,    ! Name
  {dba60889-14ab-4a13-95db-88eba48cd778}, ! Schedule Type Limits Name
  ,                                       ! Interpolate to Timestep
  24,                                     !- Hour 1
  0,                                      !- Minute 1
  24;                                     !- Value Until Time 1

OS:Schedule:Day,
  {86eeaff9-fafa-48cb-b4de-ac418cccd13e}, ! Handle
  SmallHotel ClgSetp Summer Design Day,   ! Name
  {dba60889-14ab-4a13-95db-88eba48cd778}, ! Schedule Type Limits Name
  ,                                       ! Interpolate to Timestep
  24,                                     ! Hour 1
  0,                                      ! Minute 1
  24;                                     ! Value Until Time 1

OS:Schedule:Day,
  {2317c894-65a0-4789-bfd2-774861044cc9}, ! Handle
  SmallHotel ClgSetp Winter Design Day,   ! Name
  {dba60889-14ab-4a13-95db-88eba48cd778}, ! Schedule Type Limits Name
  ,                                       ! Interpolate to Timestep
  24,                                     ! Hour 1
  0,                                      ! Minute 1
  24;                                     ! Value Until Time 1

OS:SpaceType,
  {e3d043c2-02ce-4256-b0fc-6c5467485c72}, !- Handle
  189.1-2009 - SmHotel - Exercise - CZ4-8, !- Name
  ,                                       !- Default Construction Set Name
  {a712a173-3266-46c4-8b0d-8a7cd8b3b4d9}, !- Default Schedule Set Name
  {073bb9c9-733a-4833-aa18-e8ebf8cef45f}, !- Group Rendering Name
  {c89953f9-0894-4241-9cc8-fe281ed86adf}, !- Design Specification Outdoor Air Object Name
  SmallHotel,                             !- Standards Building Type
  Exercise;                               !- Standards Space Type

OS:Rendering:Color,
  {073bb9c9-733a-4833-aa18-e8ebf8cef45f}, !- Handle
  Rendering Color 2,                      !- Name
  154,                                    !- Rendering Red Value
  230,                                    !- Rendering Green Value
  120;                                    !- Rendering Blue Value

OS:DefaultScheduleSet,
  {a712a173-3266-46c4-8b0d-8a7cd8b3b4d9}, !- Handle
  189.1-2009 - SmHotel - Exercise - CZ4-8 Schedule Set, !- Name
  ,                                       !- Hours of Operation Schedule Name
  {5080064c-6dac-4d1f-8279-2c4e3d44cf1c}, !- Number of People Schedule Name
  {b5434fa3-7127-43c1-8363-b57d93b86231}, !- People Activity Level Schedule Name
  {24d5a2be-96c4-43c7-8230-7bdb0975b829}, !- Lighting Schedule Name